<?xml version="1.0" encoding="UTF-8"?>

<!-- generated on 2022-03-14 17:34:38 by Eclipse SUMO netedit Version 1.12.0
<configuration xmlns:xsi="http://www.w3.org/2001/XMLSchema-instance" xsi:noNamespaceSchemaLocation="http://sumo.dlr.de/xsd/netconvertConfiguration.xsd">

    <input>
        <sumo-net-file value="/Users/gazelpaul/TFM/test/circle_network.net.xml"/>
    </input>

    <output>
        <output-file value="/Users/gazelpaul/TFM/test/circle_network.net.xml"/>
    </output>

    <processing>
        <geometry.min-radius.fix.railways value="false"/>
        <geometry.max-grade.fix value="false"/>
        <offset.disable-normalization value="true"/>
        <lefthand value="false"/>
    </processing>

    <junctions>
        <no-turnarounds value="true"/>
        <junctions.corner-detail value="5"/>
        <junctions.limit-turn-speed value="5.5"/>
        <rectangular-lane-cut value="false"/>
    </junctions>

    <pedestrian>
        <walkingareas value="false"/>
    </pedestrian>

    <report>
        <aggregate-warnings value="5"/>
    </report>

</configuration>
-->

<net version="1.9" junctionCornerDetail="5" limitTurnSpeed="5.50" xmlns:xsi="http://www.w3.org/2001/XMLSchema-instance" xsi:noNamespaceSchemaLocation="http://sumo.dlr.de/xsd/net_file.xsd">

    <location netOffset="0.00,0.00" convBoundary="-136.39,37.90,113.25,95.22" origBoundary="-10000000000.00,-10000000000.00,10000000000.00,10000000000.00" projParameter="!"/>

    <edge id=":J10_0" function="internal">
        <lane id=":J10_0_0" index="0" speed="7.75" length="12.80" shape="-120.37,52.34 -120.72,47.98 -121.75,44.84 -123.48,42.90 -125.90,42.18"/>
    </edge>
    <edge id=":J10_1" function="internal">
        <lane id=":J10_1_0" index="0" speed="9.78" length="21.40" shape="-120.37,52.34 -119.53,46.62 -117.03,42.51 -112.85,39.99 -107.00,39.07"/>
    </edge>
    <edge id=":J10_2" function="internal">
        <lane id=":J10_2_0" index="0" speed="7.45" length="19.21" shape="-120.37,52.34 -119.67,46.36 -117.56,43.62 -114.04,44.12 -109.12,47.85"/>
    </edge>
    <edge id=":J10_3" function="internal">
        <lane id=":J10_3_0" index="0" speed="5.54" length="9.88" shape="-111.32,50.17 -113.88,48.22 -115.71,47.93 -116.80,49.31 -117.17,52.34"/>
    </edge>
    <edge id=":J10_4" function="internal">
        <lane id=":J10_4_0" index="0" speed="13.89" length="16.90" shape="-111.32,50.17 -114.43,47.50 -118.10,44.96 -122.02,43.03 -125.90,42.18"/>
    </edge>
    <edge id=":J10_5" function="internal">
        <lane id=":J10_5_0" index="0" speed="7.43" length="19.40" shape="-111.32,50.17 -115.32,45.42 -115.93,41.98 -113.16,39.87 -107.00,39.07"/>
    </edge>
    <edge id=":J10_6" function="internal">
        <lane id=":J10_6_0" index="0" speed="5.47" length="9.76" shape="-106.94,42.26 -110.04,42.67 -111.44,43.73 -111.13,45.46 -109.12,47.85"/>
    </edge>
    <edge id=":J10_7" function="internal">
        <lane id=":J10_7_0" index="0" speed="8.60" length="16.31" shape="-106.94,42.26 -111.42,42.96 -114.61,44.88 -116.53,48.00 -117.17,52.34"/>
    </edge>
    <edge id=":J10_8" function="internal">
        <lane id=":J10_8_0" index="0" speed="13.89" length="18.96" shape="-106.94,42.26 -125.90,42.18"/>
    </edge>
    <edge id=":J10_9" function="internal">
        <lane id=":J10_9_0" index="0" speed="13.89" length="18.76" shape="-125.76,38.98 -107.00,39.07"/>
    </edge>
    <edge id=":J10_10" function="internal">
        <lane id=":J10_10_0" index="0" speed="13.89" length="19.11" shape="-125.76,38.98 -121.56,39.97 -116.92,42.20 -112.54,45.04 -109.12,47.85"/>
    </edge>
    <edge id=":J10_11" function="internal">
        <lane id=":J10_11_0" index="0" speed="9.03" length="17.75" shape="-125.76,38.98 -122.00,39.95 -119.32,42.50 -117.71,46.63 -117.17,52.34"/>
    </edge>
    <edge id=":J13_0" function="internal">
        <lane id=":J13_0_0" index="0" speed="6.20" length="5.78" shape="-63.14,92.52 -63.86,93.86 -64.84,94.81 -66.09,95.39 -67.60,95.59"/>
    </edge>
    <edge id=":J13_1" function="internal">
        <lane id=":J13_1_0" index="0" speed="3.97" length="1.93" shape="-67.61,92.39 -67.11,92.32 -66.69,92.13 -66.37,91.81 -66.13,91.37"/>
    </edge>
    <edge id=":J14_0" function="internal">
        <lane id=":J14_0_0" index="0" speed="7.69" length="10.48" shape="-63.26,48.16 -64.41,45.25 -65.97,43.19 -67.96,41.97 -70.37,41.60"/>
    </edge>
    <edge id=":J14_1" function="internal">
        <lane id=":J14_1_0" index="0" speed="7.62" length="15.28" shape="-63.26,48.16 -63.83,43.84 -62.78,40.73 -60.11,38.83 -55.81,38.14"/>
    </edge>
    <edge id=":J14_2" function="internal">
        <lane id=":J14_2_0" index="0" speed="6.02" length="9.07" shape="-55.75,41.34 -58.31,41.75 -59.90,42.88 -60.52,44.73 -60.18,47.29"/>
    </edge>
    <edge id=":J14_3" function="internal">
        <lane id=":J14_3_0" index="0" speed="13.89" length="14.62" shape="-55.75,41.34 -70.37,41.60"/>
    </edge>
    <edge id=":J14_4" function="internal">
        <lane id=":J14_4_0" index="0" speed="13.89" length="14.62" shape="-70.43,38.40 -55.81,38.14"/>
    </edge>
    <edge id=":J14_5" function="internal">
        <lane id=":J14_5_0" index="0" speed="9.02" length="3.73" shape="-70.43,38.40 -66.90,38.90 -66.75,38.98"/>
    </edge>
    <edge id=":J14_6" function="internal">
        <lane id=":J14_6_0" index="0" speed="9.02" length="10.99" shape="-66.75,38.98 -64.01,40.55 -61.77,43.35 -60.18,47.29"/>
    </edge>
    <edge id=":J15_0" function="internal">
        <lane id=":J15_0_0" index="0" speed="13.14" length="11.65" shape="-82.87,71.35 -86.05,71.69 -88.47,72.53 -90.68,73.93 -93.25,75.94"/>
    </edge>
    <edge id=":J15_1" function="internal">
        <lane id=":J15_1_0" index="0" speed="12.08" length="3.02" shape="-82.87,71.35 -85.87,71.07"/>
    </edge>
    <edge id=":J15_6" function="internal">
        <lane id=":J15_6_0" index="0" speed="12.08" length="10.59" shape="-85.87,71.07 -88.88,70.05 -91.89,68.28 -94.91,65.78"/>
    </edge>
    <edge id=":J15_2" function="internal">
        <lane id=":J15_2_0" index="0" speed="10.94" length="11.08" shape="-92.71,63.46 -90.19,65.57 -87.73,67.05 -85.32,67.91 -82.97,68.15"/>
    </edge>
    <edge id=":J15_3" function="internal">
        <lane id=":J15_3_0" index="0" speed="7.77" length="14.74" shape="-92.71,63.46 -90.16,66.70 -89.40,69.86 -90.43,72.94 -93.25,75.94"/>
    </edge>
    <edge id=":J15_4" function="internal">
        <lane id=":J15_4_0" index="0" speed="6.23" length="9.05" shape="-95.25,73.44 -93.52,71.60 -92.88,69.71 -93.35,67.77 -94.91,65.78"/>
    </edge>
    <edge id=":J15_5" function="internal">
        <lane id=":J15_5_0" index="0" speed="13.89" length="13.63" shape="-95.25,73.44 -92.38,71.32 -89.51,69.68 -86.44,68.60 -82.97,68.15"/>
    </edge>
    <edge id=":J16_0" function="internal">
        <lane id=":J16_0_0" index="0" speed="7.56" length="9.25" shape="-50.47,73.84 -52.95,74.09 -54.99,74.94 -56.58,76.41 -57.72,78.50"/>
    </edge>
    <edge id=":J16_1" function="internal">
        <lane id=":J16_1_0" index="0" speed="13.89" length="14.44" shape="-50.47,73.84 -54.99,73.27 -58.31,72.20 -61.22,71.18 -64.51,70.79"/>
    </edge>
    <edge id=":J16_2" function="internal">
        <lane id=":J16_2_0" index="0" speed="9.36" length="2.98" shape="-50.40,70.64 -53.29,69.96"/>
    </edge>
    <edge id=":J16_12" function="internal">
        <lane id=":J16_12_0" index="0" speed="9.36" length="12.31" shape="-53.29,69.96 -53.45,69.92 -56.06,67.91 -58.21,64.60 -59.92,60.01"/>
    </edge>
    <edge id=":J16_3" function="internal">
        <lane id=":J16_3_0" index="0" speed="7.31" length="9.00" shape="-56.84,59.14 -55.90,61.33 -54.49,62.91 -52.60,63.88 -50.25,64.25"/>
    </edge>
    <edge id=":J16_4" function="internal">
        <lane id=":J16_4_0" index="0" speed="13.89" length="19.58" shape="-56.84,59.14 -56.15,63.54 -56.10,68.87 -56.63,74.18 -57.72,78.50"/>
    </edge>
    <edge id=":J16_5" function="internal">
        <lane id=":J16_5_0" index="0" speed="8.03" length="6.79" shape="-56.84,59.14 -56.12,64.11 -56.61,65.80"/>
    </edge>
    <edge id=":J16_13" function="internal">
        <lane id=":J16_13_0" index="0" speed="8.03" length="10.19" shape="-56.61,65.80 -57.16,67.71 -59.96,69.94 -64.51,70.79"/>
    </edge>
    <edge id=":J16_6" function="internal">
        <lane id=":J16_6_0" index="0" speed="6.54" length="10.84" shape="-64.61,67.59 -61.77,67.04 -60.05,65.59 -59.43,63.25 -59.92,60.01"/>
    </edge>
    <edge id=":J16_7" function="internal">
        <lane id=":J16_7_0" index="0" speed="13.89" length="14.29" shape="-64.61,67.59 -50.32,67.44"/>
    </edge>
    <edge id=":J16_8" function="internal">
        <lane id=":J16_8_0" index="0" speed="7.61" length="6.94" shape="-64.61,67.59 -59.97,68.14 -58.15,69.50"/>
    </edge>
    <edge id=":J16_14" function="internal">
        <lane id=":J16_14_0" index="0" speed="7.61" length="9.66" shape="-58.15,69.50 -57.27,70.15 -56.53,73.60 -57.72,78.50"/>
    </edge>
    <edge id=":J16_9" function="internal">
        <lane id=":J16_9_0" index="0" speed="5.98" length="9.74" shape="-60.71,77.35 -59.97,74.40 -60.36,72.33 -61.87,71.12 -64.51,70.79"/>
    </edge>
    <edge id=":J16_10" function="internal">
        <lane id=":J16_10_0" index="0" speed="13.89" length="17.57" shape="-60.71,77.35 -59.63,73.35 -59.13,68.73 -59.21,64.09 -59.92,60.01"/>
    </edge>
    <edge id=":J16_11" function="internal">
        <lane id=":J16_11_0" index="0" speed="9.57" length="3.50" shape="-60.71,77.35 -59.20,74.19"/>
    </edge>
    <edge id=":J16_15" function="internal">
        <lane id=":J16_15_0" index="0" speed="9.57" length="11.78" shape="-59.20,74.19 -58.60,72.96 -56.17,69.84 -53.41,68.01 -50.32,67.44"/>
    </edge>
    <edge id=":J17_0" function="internal">
        <lane id=":J17_0_0" index="0" speed="13.89" length="0.33" shape="-1.81,74.96 -2.16,74.96"/>
        <lane id=":J17_0_1" index="1" speed="13.89" length="0.33" shape="-1.77,71.76 -2.08,71.76"/>
    </edge>
    <edge id=":J17_2" function="internal">
        <lane id=":J17_2_0" index="0" speed="13.89" length="0.26" shape="-1.94,65.36 -1.69,65.36"/>
        <lane id=":J17_2_1" index="1" speed="13.89" length="0.26" shape="-2.01,68.56 -1.73,68.56"/>
    </edge>
    <edge id=":J19_0" function="internal">
        <lane id=":J19_0_0" index="0" speed="13.89" length="14.95" shape="45.49,72.42 42.15,72.84 39.12,73.88 35.63,74.92 30.92,75.36"/>
    </edge>
    <edge id=":J19_1" function="internal">
        <lane id=":J19_1_0" index="0" speed="8.94" length="3.54" shape="45.49,72.42 42.04,71.64"/>
    </edge>
    <edge id=":J19_6" function="internal">
        <lane id=":J19_6_0" index="0" speed="8.94" length="13.45" shape="42.04,71.64 41.75,71.58 39.00,69.25 37.24,65.43 36.47,60.14"/>
    </edge>
    <edge id=":J19_2" function="internal">
        <lane id=":J19_2_0" index="0" speed="7.63" length="12.13" shape="39.66,59.99 40.19,63.98 41.35,66.85 43.14,68.59 45.57,69.22"/>
    </edge>
    <edge id=":J19_3" function="internal">
        <lane id=":J19_3_0" index="0" speed="8.57" length="17.18" shape="39.66,59.99 39.33,65.36 37.77,69.17 34.98,71.44 30.95,72.16"/>
    </edge>
    <edge id=":J19_4" function="internal">
        <lane id=":J19_4_0" index="0" speed="6.38" length="9.04" shape="31.03,65.76 33.51,65.43 35.24,64.39 36.22,62.62 36.47,60.14"/>
    </edge>
    <edge id=":J19_5" function="internal">
        <lane id=":J19_5_0" index="0" speed="13.89" length="14.58" shape="30.99,68.96 45.57,69.22"/>
    </edge>
    <edge id=":J20_0" function="internal">
        <lane id=":J20_0_0" index="0" speed="6.63" length="9.20" shape="35.80,45.54 35.33,43.02 34.21,41.24 32.43,40.19 29.98,39.87"/>
    </edge>
    <edge id=":J20_1" function="internal">
        <lane id=":J20_1_0" index="0" speed="7.93" length="14.34" shape="35.80,45.54 36.18,41.61 37.73,38.79 40.47,37.08 44.37,36.49"/>
    </edge>
    <edge id=":J20_2" function="internal">
        <lane id=":J20_2_0" index="0" speed="6.43" length="9.03" shape="44.40,39.69 41.94,40.07 40.21,41.14 39.23,42.92 38.99,45.39"/>
    </edge>
    <edge id=":J20_3" function="internal">
        <lane id=":J20_3_0" index="0" speed="13.89" length="14.42" shape="44.40,39.69 29.98,39.87"/>
    </edge>
    <edge id=":J20_4" function="internal">
        <lane id=":J20_4_0" index="0" speed="13.89" length="14.45" shape="29.92,36.67 44.37,36.49"/>
    </edge>
    <edge id=":J20_5" function="internal">
        <lane id=":J20_5_0" index="0" speed="8.10" length="4.05" shape="29.92,36.67 33.74,37.16 33.92,37.26"/>
    </edge>
    <edge id=":J20_6" function="internal">
        <lane id=":J20_6_0" index="0" speed="8.10" length="10.21" shape="33.92,37.26 36.52,38.78 38.27,41.52 38.99,45.39"/>
    </edge>
    <edge id=":J21_0" function="internal">
        <lane id=":J21_0_0" index="0" speed="6.54" length="9.09" shape="76.50,39.50 74.05,39.85 72.30,40.91 71.24,42.68 70.87,45.16"/>
    </edge>
    <edge id=":J21_1" function="internal">
        <lane id=":J21_1_0" index="0" speed="13.89" length="14.41" shape="76.50,39.50 62.08,39.56"/>
    </edge>
    <edge id=":J21_2" function="internal">
        <lane id=":J21_2_0" index="0" speed="13.89" length="14.44" shape="62.06,36.36 76.50,36.30"/>
    </edge>
    <edge id=":J21_3" function="internal">
        <lane id=":J21_3_0" index="0" speed="7.97" length="4.11" shape="62.06,36.36 65.94,36.88 66.10,36.98"/>
    </edge>
    <edge id=":J21_6" function="internal">
        <lane id=":J21_6_0" index="0" speed="7.97" length="10.14" shape="66.10,36.98 68.70,38.52 70.34,41.28 70.87,45.16"/>
    </edge>
    <edge id=":J21_4" function="internal">
        <lane id=":J21_4_0" index="0" speed="6.47" length="9.03" shape="67.67,45.14 67.33,42.68 66.29,40.93 64.54,39.89 62.08,39.56"/>
    </edge>
    <edge id=":J21_5" function="internal">
        <lane id=":J21_5_0" index="0" speed="8.03" length="14.22" shape="67.67,45.14 68.24,41.27 69.91,38.51 72.66,36.85 76.50,36.30"/>
    </edge>
    <edge id=":J22_0" function="internal">
        <lane id=":J22_0_0" index="0" speed="13.89" length="14.58" shape="76.37,72.91 61.79,72.82"/>
    </edge>
    <edge id=":J22_1" function="internal">
        <lane id=":J22_1_0" index="0" speed="7.97" length="4.23" shape="76.37,72.91 72.48,72.40 72.21,72.25"/>
    </edge>
    <edge id=":J22_6" function="internal">
        <lane id=":J22_6_0" index="0" speed="7.97" length="10.04" shape="72.21,72.25 69.71,70.77 68.06,68.01 67.53,64.12"/>
    </edge>
    <edge id=":J22_2" function="internal">
        <lane id=":J22_2_0" index="0" speed="6.46" length="9.03" shape="70.73,64.15 71.07,66.61 72.11,68.35 73.86,69.39 76.32,69.71"/>
    </edge>
    <edge id=":J22_3" function="internal">
        <lane id=":J22_3_0" index="0" speed="7.97" length="14.27" shape="70.73,64.15 70.15,68.02 68.46,70.76 65.68,72.36 61.79,72.82"/>
    </edge>
    <edge id=":J22_4" function="internal">
        <lane id=":J22_4_0" index="0" speed="6.47" length="9.04" shape="61.87,69.62 64.33,69.33 66.10,68.32 67.16,66.58 67.53,64.12"/>
    </edge>
    <edge id=":J22_5" function="internal">
        <lane id=":J22_5_0" index="0" speed="13.89" length="14.46" shape="61.87,69.62 76.32,69.71"/>
    </edge>
    <edge id=":J9_0" function="internal">
        <lane id=":J9_0_0" index="0" speed="13.89" length="20.15" shape="-105.54,95.77 -125.69,96.23"/>
    </edge>
    <edge id=":J9_1" function="internal">
        <lane id=":J9_1_0" index="0" speed="9.79" length="5.22" shape="-105.54,95.77 -110.73,95.18"/>
    </edge>
    <edge id=":J9_2" function="internal">
        <lane id=":J9_2_0" index="0" speed="7.55" length="6.01" shape="-105.54,95.77 -111.52,95.20"/>
    </edge>
    <edge id=":J9_12" function="internal">
        <lane id=":J9_12_0" index="0" speed="9.79" length="16.62" shape="-110.73,95.18 -112.03,95.03 -116.66,92.76 -119.44,88.94 -120.37,83.59"/>
    </edge>
    <edge id=":J9_13" function="internal">
        <lane id=":J9_13_0" index="0" speed="7.55" length="15.12" shape="-111.52,95.20 -112.47,95.11 -115.43,93.05 -114.41,89.60 -109.43,84.74"/>
    </edge>
    <edge id=":J9_3" function="internal">
        <lane id=":J9_3_0" index="0" speed="5.46" length="10.20" shape="-107.43,87.24 -109.84,89.59 -110.33,91.26 -108.90,92.25 -105.56,92.57"/>
    </edge>
    <edge id=":J9_4" function="internal">
        <lane id=":J9_4_0" index="0" speed="13.89" length="20.52" shape="-107.43,87.24 -111.23,89.92 -116.15,92.80 -121.28,95.14 -125.69,96.23"/>
    </edge>
    <edge id=":J9_5" function="internal">
        <lane id=":J9_5_0" index="0" speed="7.70" length="19.77" shape="-107.43,87.24 -113.09,90.88 -117.14,91.48 -119.56,89.05 -120.37,83.59"/>
    </edge>
    <edge id=":J9_6" function="internal">
        <lane id=":J9_6_0" index="0" speed="5.97" length="11.24" shape="-117.17,83.59 -116.69,86.41 -115.23,87.54 -112.82,86.98 -109.43,84.74"/>
    </edge>
    <edge id=":J9_7" function="internal">
        <lane id=":J9_7_0" index="0" speed="8.62" length="16.68" shape="-117.17,83.59 -116.44,87.54 -114.27,90.35 -110.64,92.03 -105.56,92.57"/>
    </edge>
    <edge id=":J9_8" function="internal">
        <lane id=":J9_8_0" index="0" speed="8.90" length="17.04" shape="-117.17,83.59 -117.70,88.94 -119.30,92.83 -121.96,95.26 -125.69,96.23"/>
    </edge>
    <edge id=":J9_9" function="internal">
        <lane id=":J9_9_0" index="0" speed="7.60" length="12.13" shape="-125.87,93.04 -123.46,92.33 -121.75,90.52 -120.71,87.60 -120.37,83.59"/>
    </edge>
    <edge id=":J9_10" function="internal">
        <lane id=":J9_10_0" index="0" speed="13.89" length="18.61" shape="-125.87,93.04 -121.75,92.06 -117.24,89.95 -112.95,87.31 -109.43,84.74"/>
    </edge>
    <edge id=":J9_11" function="internal">
        <lane id=":J9_11_0" index="0" speed="13.89" length="20.32" shape="-125.87,93.04 -105.56,92.57"/>
    </edge>

    <edge id="-E16" from="J10" to="J9" priority="-1">
        <lane id="-E16_0" index="0" speed="13.89" length="31.25" shape="-117.17,52.34 -117.17,83.59"/>
    </edge>
    <edge id="-E17" from="J9" to="J11" priority="-1">
        <lane id="-E17_0" index="0" speed="13.89" length="10.14" shape="-125.69,96.23 -135.81,96.82"/>
    </edge>
    <edge id="-E18" from="J10" to="J12" priority="-1">
        <lane id="-E18_0" index="0" speed="13.89" length="10.57" shape="-125.90,42.18 -136.46,41.73"/>
    </edge>
    <edge id="-E19" from="J13" to="J9" priority="-1">
        <lane id="-E19_0" index="0" speed="13.89" length="37.95" shape="-67.60,95.59 -105.54,95.77"/>
    </edge>
    <edge id="-E20" from="J14" to="J10" priority="-1">
        <lane id="-E20_0" index="0" speed="13.89" length="36.58" shape="-70.37,41.60 -106.94,42.26"/>
    </edge>
    <edge id="-E21" from="J15" to="J10" priority="-1">
        <lane id="-E21_0" index="0" speed="13.89" length="22.65" shape="-94.91,65.78 -111.32,50.17"/>
    </edge>
    <edge id="-E22" from="J9" to="J15" priority="-1">
        <lane id="-E22_0" index="0" speed="13.89" length="18.13" shape="-109.43,84.74 -95.25,73.44"/>
    </edge>
    <edge id="-E23" from="J16" to="J15" priority="-1">
        <lane id="-E23_0" index="0" speed="13.89" length="18.37" shape="-64.51,70.79 -82.87,71.35"/>
    </edge>
    <edge id="-E24" from="J16" to="J14" priority="-1">
        <lane id="-E24_0" index="0" speed="13.89" length="12.31" shape="-59.92,60.01 -63.26,48.16"/>
    </edge>
    <edge id="-E25" from="J13" to="J16" priority="-1">
        <lane id="-E25_0" index="0" speed="13.89" length="15.03" shape="-66.13,91.37 -60.71,77.35"/>
    </edge>
    <edge id="-E26" from="J17" to="J16" priority="-1">
        <lane id="-E26_0" index="0" speed="13.89" length="48.32" shape="-2.16,74.96 -50.47,73.84"/>
        <lane id="-E26_1" index="1" speed="13.89" length="48.32" shape="-2.08,71.76 -50.40,70.64"/>
    </edge>
    <edge id="-E29" from="J19" to="J17" priority="-1">
        <lane id="-E29_0" index="0" speed="13.89" length="32.73" shape="30.92,75.36 -1.81,74.96"/>
        <lane id="-E29_1" index="1" speed="13.89" length="32.73" shape="30.95,72.16 -1.77,71.76"/>
    </edge>
    <edge id="-E30" from="J20" to="J19" priority="-1">
        <lane id="-E30_0" index="0" speed="13.89" length="14.61" shape="38.99,45.39 39.66,59.99"/>
    </edge>
    <edge id="-E31" from="J14" to="J20" priority="-1">
        <lane id="-E31_0" index="0" speed="13.89" length="85.74" shape="-55.81,38.14 29.92,36.67"/>
    </edge>
    <edge id="-E32" from="J21" to="J20" priority="-1">
        <lane id="-E32_0" index="0" speed="13.89" length="17.69" shape="62.08,39.56 44.40,39.69"/>
    </edge>
    <edge id="-E33" from="J22" to="J21" priority="-1">
        <lane id="-E33_0" index="0" speed="13.89" length="18.99" shape="67.53,64.12 67.67,45.14"/>
    </edge>
    <edge id="-E34" from="J22" to="J19" priority="-1">
        <lane id="-E34_0" index="0" speed="13.89" length="16.30" shape="61.79,72.82 45.49,72.42"/>
    </edge>
    <edge id="-E35" from="J23" to="J22" priority="-1">
        <lane id="-E35_0" index="0" speed="13.89" length="31.20" shape="107.56,72.50 76.37,72.91"/>
    </edge>
    <edge id="-E36" from="J24" to="J21" priority="-1">
        <lane id="-E36_0" index="0" speed="13.89" length="36.75" shape="113.25,39.50 76.50,39.50"/>
    </edge>
    <edge id="E16" from="J9" to="J10" priority="-1">
        <lane id="E16_0" index="0" speed="13.89" length="31.25" shape="-120.37,83.59 -120.37,52.34"/>
    </edge>
    <edge id="E17" from="J11" to="J9" priority="-1">
        <lane id="E17_0" index="0" speed="13.89" length="10.14" shape="-135.99,93.62 -125.87,93.04"/>
    </edge>
    <edge id="E18" from="J12" to="J10" priority="-1">
        <lane id="E18_0" index="0" speed="13.89" length="10.57" shape="-136.32,38.53 -125.76,38.98"/>
    </edge>
    <edge id="E19" from="J9" to="J13" priority="-1">
        <lane id="E19_0" index="0" speed="13.89" length="37.95" shape="-105.56,92.57 -67.61,92.39"/>
    </edge>
    <edge id="E20" from="J10" to="J14" priority="-1">
        <lane id="E20_0" index="0" speed="13.89" length="36.58" shape="-107.00,39.07 -70.43,38.40"/>
    </edge>
    <edge id="E21" from="J10" to="J15" priority="-1">
        <lane id="E21_0" index="0" speed="13.89" length="22.65" shape="-109.12,47.85 -92.71,63.46"/>
    </edge>
    <edge id="E22" from="J15" to="J9" priority="-1">
        <lane id="E22_0" index="0" speed="13.89" length="18.13" shape="-93.25,75.94 -107.43,87.24"/>
    </edge>
    <edge id="E23" from="J15" to="J16" priority="-1">
        <lane id="E23_0" index="0" speed="13.89" length="18.37" shape="-82.97,68.15 -64.61,67.59"/>
    </edge>
    <edge id="E24" from="J14" to="J16" priority="-1">
        <lane id="E24_0" index="0" speed="13.89" length="12.31" shape="-60.18,47.29 -56.84,59.14"/>
    </edge>
    <edge id="E25" from="J16" to="J13" priority="-1">
        <lane id="E25_0" index="0" speed="13.89" length="15.03" shape="-57.72,78.50 -63.14,92.52"/>
    </edge>
    <edge id="E26" from="J16" to="J17" priority="-1">
        <lane id="E26_0" index="0" speed="13.89" length="48.32" shape="-50.25,64.25 -1.94,65.36"/>
        <lane id="E26_1" index="1" speed="13.89" length="48.32" shape="-50.32,67.44 -2.01,68.56"/>
    </edge>
    <edge id="E29" from="J17" to="J19" priority="-1">
        <lane id="E29_0" index="0" speed="13.89" length="32.73" shape="-1.69,65.36 31.03,65.76"/>
        <lane id="E29_1" index="1" speed="13.89" length="32.73" shape="-1.73,68.56 30.99,68.96"/>
    </edge>
    <edge id="E30" from="J19" to="J20" priority="-1">
        <lane id="E30_0" index="0" speed="13.89" length="14.61" shape="36.47,60.14 35.80,45.54"/>
    </edge>
    <edge id="E31" from="J20" to="J14" priority="-1">
        <lane id="E31_0" index="0" speed="13.89" length="85.74" shape="29.98,39.87 -55.75,41.34"/>
    </edge>
    <edge id="E32" from="J20" to="J21" priority="-1">
        <lane id="E32_0" index="0" speed="13.89" length="17.69" shape="44.37,36.49 62.06,36.36"/>
    </edge>
    <edge id="E33" from="J21" to="J22" priority="-1">
        <lane id="E33_0" index="0" speed="13.89" length="18.99" shape="70.87,45.16 70.73,64.15"/>
    </edge>
    <edge id="E34" from="J19" to="J22" priority="-1">
        <lane id="E34_0" index="0" speed="13.89" length="16.30" shape="45.57,69.22 61.87,69.62"/>
    </edge>
    <edge id="E35" from="J22" to="J23" priority="-1">
        <lane id="E35_0" index="0" speed="13.89" length="31.20" shape="76.32,69.71 107.52,69.30"/>
    </edge>
    <edge id="E36" from="J21" to="J24" priority="-1">
        <lane id="E36_0" index="0" speed="13.89" length="36.75" shape="76.50,36.30 113.25,36.30"/>
    </edge>

    <tlLogic id="J10" type="static" programID="0" offset="0">
        <phase duration="18" state="GrrrrrrrrGGG"/>
        <phase duration="3"  state="yrrrrrrrryyy"/>
        <phase duration="20" state="GGGGrrrrrrrr"/>
        <phase duration="3"  state="yyyyrrrrrrrr"/>
        <phase duration="20" state="rrrrrrGGGGrr"/>
        <phase duration="3"  state="rrrrrryyyyrr"/>
        <phase duration="20" state="rrrGGGGrrrrr"/>
        <phase duration="3"  state="rrryyyyrrrrr"/>
    </tlLogic>
    <tlLogic id="J13" type="static" programID="0" offset="0">
        <phase duration="42" state="GG"/>
        <phase duration="3"  state="yy"/>
        <phase duration="42" state="GG"/>
        <phase duration="3"  state="yy"/>
    </tlLogic>
    <tlLogic id="J14" type="static" programID="0" offset="0">
        <phase duration="42" state="rrGGGg"/>
        <phase duration="3"  state="rryyyy"/>
        <phase duration="42" state="GGGrrr"/>
        <phase duration="3"  state="yyyrrr"/>
    </tlLogic>
    <tlLogic id="J15" type="static" programID="0" offset="0">
        <phase duration="42" state="GgrrGG"/>
        <phase duration="3"  state="yyrryy"/>
        <phase duration="42" state="rrGGGr"/>
        <phase duration="3"  state="rryyyr"/>
    </tlLogic>
    <tlLogic id="J16" type="static" programID="0" offset="0">
        <phase duration="38" state="GGgrrrGGgrrr"/>
        <phase duration="3"  state="yygrrryygrrr"/>
        <phase duration="6"  state="rrGrrrrrGrrr"/>
        <phase duration="3"  state="rryrrrrryrrr"/>
        <phase duration="37" state="rrrGGgrrrGGg"/>
        <phase duration="3"  state="rrryyyrrryyy"/>
    </tlLogic>
    <tlLogic id="J19" type="static" programID="0" offset="0">
        <phase duration="42" state="GgrrGG"/>
        <phase duration="3"  state="yyrryy"/>
        <phase duration="42" state="GrGGGr"/>
        <phase duration="3"  state="yryyyr"/>
    </tlLogic>
    <tlLogic id="J20" type="static" programID="0" offset="0">
        <phase duration="42" state="rrGGGg"/>
        <phase duration="3"  state="rryyyy"/>
        <phase duration="42" state="GGGrrr"/>
        <phase duration="3"  state="yyyrrr"/>
    </tlLogic>
    <tlLogic id="J21" type="static" programID="0" offset="0">
        <phase duration="42" state="GGGgrr"/>
        <phase duration="3"  state="yyyyrr"/>
        <phase duration="42" state="GrrrGG"/>
        <phase duration="3"  state="yrrryy"/>
    </tlLogic>
    <tlLogic id="J22" type="static" programID="0" offset="0">
        <phase duration="42" state="GgrrGG"/>
        <phase duration="3"  state="yyrryy"/>
        <phase duration="42" state="rrGGGr"/>
        <phase duration="3"  state="rryyyr"/>
    </tlLogic>
    <tlLogic id="J9" type="static" programID="0" offset="0">
        <phase duration="27" state="GggrrrrrrGGG"/>
        <phase duration="3"  state="yyyrrrrrryyy"/>
        <phase duration="27" state="rrrGGGGrrrrr"/>
        <phase duration="3"  state="rrryyyyrrrrr"/>
        <phase duration="27" state="rrrrrrGGGGrr"/>
        <phase duration="3"  state="rrrrrryyyyrr"/>
    </tlLogic>

    <junction id="J10" type="traffic_light" x="-118.77" y="40.88" incLanes="E16_0 -E21_0 -E20_0 E18_0" intLanes=":J10_0_0 :J10_1_0 :J10_2_0 :J10_3_0 :J10_4_0 :J10_5_0 :J10_6_0 :J10_7_0 :J10_8_0 :J10_9_0 :J10_10_0 :J10_11_0" shape="-121.97,52.34 -115.57,52.34 -115.22,50.45 -114.78,50.09 -114.17,50.11 -113.39,50.53 -112.43,51.33 -108.01,46.69 -109.18,45.15 -109.19,44.61 -108.81,44.21 -108.05,43.96 -106.91,43.86 -107.03,37.47 -125.69,37.38 -125.97,43.78 -123.75,44.80 -122.97,46.00 -122.41,47.66 -122.08,49.77">
        <request index="0"  response="000100010000" foes="000100010000" cont="0"/>
        <request index="1"  response="111100010000" foes="111100110000" cont="0"/>
        <request index="2"  response="110011010000" foes="110011110000" cont="0"/>
        <request index="3"  response="100010000000" foes="100010000000" cont="0"/>
        <request index="4"  response="100110000000" foes="100110000111" cont="0"/>
        <request index="5"  response="011110000110" foes="011110000110" cont="0"/>
        <request index="6"  response="000000000000" foes="010000000100" cont="0"/>
        <request index="7"  response="000000000000" foes="110000111100" cont="0"/>
        <request index="8"  response="000000000000" foes="110000110011" cont="0"/>
        <request index="9"  response="000000000000" foes="000000100010" cont="0"/>
        <request index="10" response="000111000000" foes="000111100110" cont="0"/>
        <request index="11" response="000110000000" foes="000110011110" cont="0"/>
    </junction>
    <junction id="J11" type="dead_end" x="-135.90" y="95.22" incLanes="-E17_0" intLanes="" shape="-135.90,95.22 -135.72,98.41 -135.90,95.22"/>
    <junction id="J12" type="dead_end" x="-136.39" y="40.13" incLanes="-E18_0" intLanes="" shape="-136.39,40.13 -136.53,43.33 -136.39,40.13"/>
    <junction id="J13" type="traffic_light" x="-65.42" y="93.98" incLanes="E25_0 E19_0" intLanes=":J13_0_0 :J13_1_0" shape="-61.65,93.10 -67.62,90.79 -67.59,97.19 -64.99,96.73 -63.92,96.16 -63.01,95.36 -62.25,94.34">
        <request index="0" response="00" foes="00" cont="0"/>
        <request index="1" response="00" foes="00" cont="0"/>
    </junction>