<routes>
    <vType id ="car"
        vClass="passenger" length="5" accel="3.5" decel="2.2"
        sigma="1.0" maxspeed="10"
    />

    <!-- <vehicle id="0" type="car" route="route_ 0" depart="0"/ > -->

    
</routes>