<configuration><input><net-file value="small.net.xml" /><route-files value="routefile_output.xml" /></input><processing><ignore-route-errors value="true" /></processing></configuration>