<?xml version="1.0" encoding="UTF-8"?>

<!-- generated on 2022-04-17 23:22:58 by Eclipse SUMO netedit Version 1.12.0
<configuration xmlns:xsi="http://www.w3.org/2001/XMLSchema-instance" xsi:noNamespaceSchemaLocation="http://sumo.dlr.de/xsd/netconvertConfiguration.xsd">

    <input>
        <sumo-net-file value="/home/grazeli/TFM/TFM_SUMO_RL/src_small/sumo/small.net.xml"/>
    </input>

    <output>
        <output-file value="/home/grazeli/TFM/TFM_SUMO_RL/src_small/sumo/small.net.xml"/>
    </output>

    <processing>
        <geometry.min-radius.fix.railways value="false"/>
        <geometry.max-grade.fix value="false"/>
        <offset.disable-normalization value="true"/>
        <lefthand value="false"/>
    </processing>

    <junctions>
        <no-turnarounds value="true"/>
        <junctions.corner-detail value="5"/>
        <junctions.limit-turn-speed value="5.5"/>
        <rectangular-lane-cut value="false"/>
    </junctions>

    <pedestrian>
        <walkingareas value="false"/>
    </pedestrian>

    <report>
        <aggregate-warnings value="5"/>
    </report>

</configuration>
-->

<net version="1.9" junctionCornerDetail="5" limitTurnSpeed="5.50" xmlns:xsi="http://www.w3.org/2001/XMLSchema-instance" xsi:noNamespaceSchemaLocation="http://sumo.dlr.de/xsd/net_file.xsd">

    <location netOffset="0.00,0.00" convBoundary="-136.39,37.90,113.25,95.22" origBoundary="-10000000000.00,-10000000000.00,10000000000.00,10000000000.00" projParameter="!"/>

    <edge id=":J10_0" function="internal">
        <lane id=":J10_0_0" index="0" speed="6.92" length="10.02" shape="-120.37,52.34 -120.72,49.38 -121.75,47.24 -123.48,45.90 -125.90,45.38"/>
    </edge>
    <edge id=":J10_1" function="internal">
        <lane id=":J10_1_0" index="0" speed="9.78" length="21.40" shape="-120.37,52.34 -119.53,46.62 -117.03,42.51 -112.85,39.99 -107.00,39.07"/>
    </edge>
    <edge id=":J10_2" function="internal">
        <lane id=":J10_2_0" index="0" speed="7.45" length="19.21" shape="-120.37,52.34 -119.67,46.36 -117.56,43.62 -114.04,44.12 -109.12,47.85"/>
    </edge>
    <edge id=":J10_3" function="internal">
        <lane id=":J10_3_0" index="0" speed="5.54" length="9.88" shape="-111.32,50.17 -113.88,48.22 -115.71,47.93 -116.80,49.31 -117.17,52.34"/>
    </edge>
    <edge id=":J10_4" function="internal">
        <lane id=":J10_4_0" index="0" speed="13.89" length="17.03" shape="-111.32,50.17 -113.95,47.52 -116.81,45.02 -120.54,43.10 -125.76,42.18"/>
    </edge>
    <edge id=":J10_5" function="internal">
        <lane id=":J10_5_0" index="0" speed="7.43" length="19.40" shape="-111.32,50.17 -115.32,45.42 -115.93,41.98 -113.16,39.87 -107.00,39.07"/>
    </edge>
    <edge id=":J10_6" function="internal">
        <lane id=":J10_6_0" index="0" speed="5.47" length="9.76" shape="-106.94,42.26 -110.04,42.67 -111.44,43.73 -111.13,45.46 -109.12,47.85"/>
    </edge>
    <edge id=":J10_7" function="internal">
        <lane id=":J10_7_0" index="0" speed="8.60" length="16.31" shape="-106.94,42.26 -111.42,42.96 -114.61,44.88 -116.53,48.00 -117.17,52.34"/>
    </edge>
    <edge id=":J10_8" function="internal">
        <lane id=":J10_8_0" index="0" speed="13.89" length="18.82" shape="-106.94,42.26 -125.76,42.18"/>
    </edge>
    <edge id=":J10_9" function="internal">
        <lane id=":J10_9_0" index="0" speed="13.89" length="18.82" shape="-125.49,35.79 -119.35,36.48 -114.60,37.61 -110.68,38.65 -107.00,39.07"/>
    </edge>
    <edge id=":J10_10" function="internal">
        <lane id=":J10_10_0" index="0" speed="13.89" length="19.30" shape="-125.63,38.99 -119.61,40.06 -115.22,42.28 -111.91,45.07 -109.12,47.85"/>
    </edge>
    <edge id=":J10_11" function="internal">
        <lane id=":J10_11_0" index="0" speed="9.00" length="17.65" shape="-125.63,38.99 -121.93,39.96 -119.28,42.51 -117.70,46.63 -117.17,52.34"/>
    </edge>
    <edge id=":J13_0" function="internal">
        <lane id=":J13_0_0" index="0" speed="6.20" length="5.78" shape="-63.14,92.52 -63.86,93.86 -64.84,94.81 -66.09,95.39 -67.60,95.59"/>
    </edge>
    <edge id=":J13_1" function="internal">
        <lane id=":J13_1_0" index="0" speed="3.97" length="1.93" shape="-67.61,92.39 -67.11,92.32 -66.69,92.13 -66.37,91.81 -66.13,91.37"/>
    </edge>
    <edge id=":J14_0" function="internal">
        <lane id=":J14_0_0" index="0" speed="7.69" length="10.48" shape="-63.26,48.16 -64.41,45.25 -65.97,43.19 -67.96,41.97 -70.37,41.60"/>
    </edge>
    <edge id=":J14_1" function="internal">
        <lane id=":J14_1_0" index="0" speed="7.62" length="15.28" shape="-63.26,48.16 -63.83,43.84 -62.78,40.73 -60.11,38.83 -55.81,38.14"/>
    </edge>
    <edge id=":J14_2" function="internal">
        <lane id=":J14_2_0" index="0" speed="6.02" length="9.07" shape="-55.75,41.34 -58.31,41.75 -59.90,42.88 -60.52,44.73 -60.18,47.29"/>
    </edge>
    <edge id=":J14_3" function="internal">
        <lane id=":J14_3_0" index="0" speed="13.89" length="14.62" shape="-55.75,41.34 -70.37,41.60"/>
    </edge>
    <edge id=":J14_4" function="internal">
        <lane id=":J14_4_0" index="0" speed="13.89" length="14.62" shape="-70.43,38.40 -55.81,38.14"/>
    </edge>
    <edge id=":J14_5" function="internal">
        <lane id=":J14_5_0" index="0" speed="9.02" length="3.73" shape="-70.43,38.40 -66.90,38.90 -66.75,38.98"/>
    </edge>
    <edge id=":J14_6" function="internal">
        <lane id=":J14_6_0" index="0" speed="9.02" length="10.99" shape="-66.75,38.98 -64.01,40.55 -61.77,43.35 -60.18,47.29"/>
    </edge>
    <edge id=":J15_0" function="internal">
        <lane id=":J15_0_0" index="0" speed="13.14" length="11.65" shape="-82.87,71.35 -86.05,71.69 -88.47,72.53 -90.68,73.93 -93.25,75.94"/>
    </edge>
    <edge id=":J15_1" function="internal">
        <lane id=":J15_1_0" index="0" speed="12.08" length="3.02" shape="-82.87,71.35 -85.87,71.07"/>
    </edge>
    <edge id=":J15_6" function="internal">
        <lane id=":J15_6_0" index="0" speed="12.08" length="10.59" shape="-85.87,71.07 -88.88,70.05 -91.89,68.28 -94.91,65.78"/>
    </edge>
    <edge id=":J15_2" function="internal">
        <lane id=":J15_2_0" index="0" speed="10.94" length="11.08" shape="-92.71,63.46 -90.19,65.57 -87.73,67.05 -85.32,67.91 -82.97,68.15"/>
    </edge>
    <edge id=":J15_3" function="internal">
        <lane id=":J15_3_0" index="0" speed="7.77" length="14.74" shape="-92.71,63.46 -90.16,66.70 -89.40,69.86 -90.43,72.94 -93.25,75.94"/>
    </edge>
    <edge id=":J15_4" function="internal">
        <lane id=":J15_4_0" index="0" speed="6.23" length="9.05" shape="-95.25,73.44 -93.52,71.60 -92.88,69.71 -93.35,67.77 -94.91,65.78"/>
    </edge>
    <edge id=":J15_5" function="internal">
        <lane id=":J15_5_0" index="0" speed="13.89" length="13.63" shape="-95.25,73.44 -92.38,71.32 -89.51,69.68 -86.44,68.60 -82.97,68.15"/>
    </edge>
    <edge id=":J16_0" function="internal">
        <lane id=":J16_0_0" index="0" speed="7.60" length="9.30" shape="-50.42,73.82 -52.92,74.07 -54.97,74.94 -56.57,76.41 -57.72,78.49"/>
    </edge>
    <edge id=":J16_1" function="internal">
        <lane id=":J16_1_0" index="0" speed="13.89" length="14.49" shape="-50.42,73.82 -54.96,73.27 -58.29,72.20 -61.21,71.18 -64.51,70.79"/>
    </edge>
    <edge id=":J16_2" function="internal">
        <lane id=":J16_2_0" index="0" speed="9.34" length="3.00" shape="-50.36,70.62 -53.28,69.94"/>
    </edge>
    <edge id=":J16_12" function="internal">
        <lane id=":J16_12_0" index="0" speed="9.34" length="12.31" shape="-53.28,69.94 -53.43,69.91 -56.05,67.90 -58.21,64.60 -59.92,60.00"/>
    </edge>
    <edge id=":J16_3" function="internal">
        <lane id=":J16_3_0" index="0" speed="7.29" length="9.00" shape="-56.84,59.13 -55.90,61.32 -54.49,62.90 -52.60,63.87 -50.24,64.22"/>
    </edge>
    <edge id=":J16_4" function="internal">
        <lane id=":J16_4_0" index="0" speed="13.89" length="19.58" shape="-56.84,59.13 -56.15,63.53 -56.10,68.87 -56.63,74.18 -57.72,78.49"/>
    </edge>
    <edge id=":J16_5" function="internal">
        <lane id=":J16_5_0" index="0" speed="8.03" length="6.79" shape="-56.84,59.13 -56.12,64.11 -56.61,65.80"/>
    </edge>
    <edge id=":J16_13" function="internal">
        <lane id=":J16_13_0" index="0" speed="8.03" length="10.19" shape="-56.61,65.80 -57.16,67.71 -59.96,69.94 -64.51,70.79"/>
    </edge>
    <edge id=":J16_6" function="internal">
        <lane id=":J16_6_0" index="0" speed="6.54" length="10.84" shape="-64.61,67.59 -61.77,67.04 -60.05,65.59 -59.43,63.24 -59.92,60.00"/>
    </edge>
    <edge id=":J16_7" function="internal">
        <lane id=":J16_7_0" index="0" speed="13.89" length="14.31" shape="-64.61,67.59 -50.30,67.42"/>
    </edge>
    <edge id=":J16_8" function="internal">
        <lane id=":J16_8_0" index="0" speed="7.61" length="6.93" shape="-64.61,67.59 -59.97,68.14 -58.15,69.49"/>
    </edge>
    <edge id=":J16_14" function="internal">
        <lane id=":J16_14_0" index="0" speed="7.61" length="9.67" shape="-58.15,69.49 -57.27,70.14 -56.52,73.59 -57.72,78.49"/>
    </edge>
    <edge id=":J16_9" function="internal">
        <lane id=":J16_9_0" index="0" speed="5.98" length="9.74" shape="-60.71,77.34 -59.97,74.40 -60.35,72.33 -61.87,71.12 -64.51,70.79"/>
    </edge>
    <edge id=":J16_10" function="internal">
        <lane id=":J16_10_0" index="0" speed="13.89" length="17.57" shape="-60.71,77.34 -59.63,73.34 -59.13,68.73 -59.22,64.08 -59.92,60.00"/>
    </edge>
    <edge id=":J16_11" function="internal">
        <lane id=":J16_11_0" index="0" speed="9.60" length="3.49" shape="-60.71,77.34 -59.20,74.19"/>
    </edge>
    <edge id=":J16_15" function="internal">
        <lane id=":J16_15_0" index="0" speed="9.60" length="11.81" shape="-59.20,74.19 -58.60,72.96 -56.17,69.84 -53.40,67.99 -50.30,67.42"/>
    </edge>
    <edge id=":J19_0" function="internal">
        <lane id=":J19_0_0" index="0" speed="13.89" length="14.35" shape="45.19,75.61 30.85,75.31"/>
        <lane id=":J19_0_1" index="1" speed="13.89" length="14.35" shape="45.27,72.42 30.90,72.11"/>
    </edge>
    <edge id=":J19_2" function="internal">
        <lane id=":J19_2_0" index="0" speed="8.90" length="3.51" shape="45.27,72.42 41.85,71.62"/>
    </edge>
    <edge id=":J19_8" function="internal">
        <lane id=":J19_8_0" index="0" speed="8.90" length="13.33" shape="41.85,71.62 41.62,71.57 38.94,69.24 37.22,65.42 36.47,60.12"/>
    </edge>
    <edge id=":J19_3" function="internal">
        <lane id=":J19_3_0" index="0" speed="6.79" length="9.38" shape="39.66,59.97 40.12,62.56 41.24,64.44 43.00,65.59 45.42,66.02"/>
    </edge>
    <edge id=":J19_4" function="internal">
        <lane id=":J19_4_0" index="0" speed="8.56" length="17.22" shape="39.66,59.97 39.33,65.34 37.75,69.16 34.95,71.42 30.90,72.11"/>
    </edge>
    <edge id=":J19_5" function="internal">
        <lane id=":J19_5_0" index="0" speed="6.37" length="9.04" shape="31.02,65.71 33.50,65.40 35.24,64.36 36.22,62.60 36.47,60.12"/>
    </edge>
    <edge id=":J19_6" function="internal">
        <lane id=":J19_6_0" index="0" speed="13.89" length="14.39" shape="31.02,65.71 45.42,66.02"/>
        <lane id=":J19_6_1" index="1" speed="13.89" length="14.39" shape="30.96,68.91 45.34,69.22"/>
    </edge>
    <edge id=":J20_0" function="internal">
        <lane id=":J20_0_0" index="0" speed="6.63" length="9.20" shape="35.80,45.54 35.33,43.02 34.21,41.24 32.43,40.19 29.98,39.87"/>
    </edge>
    <edge id=":J20_1" function="internal">
        <lane id=":J20_1_0" index="0" speed="7.93" length="14.34" shape="35.80,45.54 36.18,41.61 37.73,38.79 40.47,37.08 44.37,36.49"/>
    </edge>
    <edge id=":J20_2" function="internal">
        <lane id=":J20_2_0" index="0" speed="6.43" length="9.03" shape="44.40,39.69 41.94,40.07 40.21,41.14 39.23,42.92 38.99,45.39"/>
    </edge>
    <edge id=":J20_3" function="internal">
        <lane id=":J20_3_0" index="0" speed="13.89" length="14.42" shape="44.40,39.69 29.98,39.87"/>
    </edge>
    <edge id=":J20_4" function="internal">
        <lane id=":J20_4_0" index="0" speed="13.89" length="14.45" shape="29.92,36.67 44.37,36.49"/>
    </edge>
    <edge id=":J20_5" function="internal">
        <lane id=":J20_5_0" index="0" speed="8.10" length="4.05" shape="29.92,36.67 33.74,37.16 33.92,37.26"/>
    </edge>
    <edge id=":J20_6" function="internal">
        <lane id=":J20_6_0" index="0" speed="8.10" length="10.21" shape="33.92,37.26 36.52,38.78 38.27,41.52 38.99,45.39"/>
    </edge>
    <edge id=":J21_0" function="internal">
        <lane id=":J21_0_0" index="0" speed="6.54" length="9.09" shape="76.50,39.50 74.05,39.85 72.30,40.91 71.24,42.68 70.87,45.16"/>
    </edge>
    <edge id=":J21_1" function="internal">
        <lane id=":J21_1_0" index="0" speed="13.89" length="14.41" shape="76.50,39.50 62.08,39.56"/>
    </edge>
    <edge id=":J21_2" function="internal">
        <lane id=":J21_2_0" index="0" speed="13.89" length="14.44" shape="62.06,36.36 76.50,36.30"/>
    </edge>
    <edge id=":J21_3" function="internal">
        <lane id=":J21_3_0" index="0" speed="7.97" length="4.11" shape="62.06,36.36 65.94,36.88 66.10,36.98"/>
    </edge>
    <edge id=":J21_6" function="internal">
        <lane id=":J21_6_0" index="0" speed="7.97" length="10.14" shape="66.10,36.98 68.70,38.52 70.34,41.28 70.87,45.16"/>
    </edge>
    <edge id=":J21_4" function="internal">
        <lane id=":J21_4_0" index="0" speed="6.47" length="9.03" shape="67.67,45.14 67.33,42.68 66.29,40.93 64.54,39.89 62.08,39.56"/>
    </edge>
    <edge id=":J21_5" function="internal">
        <lane id=":J21_5_0" index="0" speed="8.03" length="14.22" shape="67.67,45.14 68.24,41.27 69.91,38.51 72.66,36.85 76.50,36.30"/>
    </edge>
    <edge id=":J22_0" function="internal">
        <lane id=":J22_0_0" index="0" speed="13.89" length="14.76" shape="76.47,76.10 61.65,76.02"/>
        <lane id=":J22_0_1" index="1" speed="13.89" length="14.76" shape="76.43,72.90 61.73,72.82"/>
    </edge>
    <edge id=":J22_2" function="internal">
        <lane id=":J22_2_0" index="0" speed="8.64" length="3.86" shape="76.43,72.90 72.63,72.22"/>
    </edge>
    <edge id=":J22_8" function="internal">
        <lane id=":J22_8_0" index="0" speed="8.64" length="13.10" shape="72.63,72.22 72.51,72.20 69.73,69.97 68.08,66.21 67.56,60.92"/>
    </edge>
    <edge id=":J22_3" function="internal">
        <lane id=":J22_3_0" index="0" speed="6.46" length="9.03" shape="70.75,60.95 71.09,63.41 72.13,65.15 73.89,66.19 76.35,66.51"/>
    </edge>
    <edge id=":J22_4" function="internal">
        <lane id=":J22_4_0" index="0" speed="8.64" length="16.96" shape="70.75,60.95 70.16,66.22 68.46,69.96 65.65,72.16 61.73,72.82"/>
    </edge>
    <edge id=":J22_5" function="internal">
        <lane id=":J22_5_0" index="0" speed="6.47" length="9.04" shape="61.89,66.42 64.35,66.13 66.12,65.12 67.19,63.38 67.56,60.92"/>
    </edge>
    <edge id=":J22_6" function="internal">
        <lane id=":J22_6_0" index="0" speed="13.89" length="14.52" shape="61.89,66.42 76.35,66.51"/>
        <lane id=":J22_6_1" index="1" speed="13.89" length="14.52" shape="61.81,69.62 76.39,69.70"/>
    </edge>
    <edge id=":J9_0" function="internal">
        <lane id=":J9_0_0" index="0" speed="13.89" length="20.15" shape="-105.54,95.77 -125.69,96.23"/>
    </edge>
    <edge id=":J9_1" function="internal">
        <lane id=":J9_1_0" index="0" speed="9.79" length="5.22" shape="-105.54,95.77 -110.73,95.18"/>
    </edge>
    <edge id=":J9_2" function="internal">
        <lane id=":J9_2_0" index="0" speed="7.55" length="6.01" shape="-105.54,95.77 -111.52,95.20"/>
    </edge>
    <edge id=":J9_12" function="internal">
        <lane id=":J9_12_0" index="0" speed="9.79" length="16.62" shape="-110.73,95.18 -112.03,95.03 -116.66,92.76 -119.44,88.94 -120.37,83.59"/>
    </edge>
    <edge id=":J9_13" function="internal">
        <lane id=":J9_13_0" index="0" speed="7.55" length="15.12" shape="-111.52,95.20 -112.47,95.11 -115.43,93.05 -114.41,89.60 -109.43,84.74"/>
    </edge>
    <edge id=":J9_3" function="internal">
        <lane id=":J9_3_0" index="0" speed="5.46" length="10.20" shape="-107.43,87.24 -109.84,89.59 -110.33,91.26 -108.90,92.25 -105.56,92.57"/>
    </edge>
    <edge id=":J9_4" function="internal">
        <lane id=":J9_4_0" index="0" speed="13.89" length="20.52" shape="-107.43,87.24 -111.23,89.92 -116.15,92.80 -121.28,95.14 -125.69,96.23"/>
    </edge>
    <edge id=":J9_5" function="internal">
        <lane id=":J9_5_0" index="0" speed="7.70" length="19.77" shape="-107.43,87.24 -113.09,90.88 -117.14,91.48 -119.56,89.05 -120.37,83.59"/>
    </edge>
    <edge id=":J9_6" function="internal">
        <lane id=":J9_6_0" index="0" speed="5.97" length="11.24" shape="-117.17,83.59 -116.69,86.41 -115.23,87.54 -112.82,86.98 -109.43,84.74"/>
    </edge>
    <edge id=":J9_7" function="internal">
        <lane id=":J9_7_0" index="0" speed="8.62" length="16.68" shape="-117.17,83.59 -116.44,87.54 -114.27,90.35 -110.64,92.03 -105.56,92.57"/>
    </edge>
    <edge id=":J9_8" function="internal">
        <lane id=":J9_8_0" index="0" speed="8.90" length="17.04" shape="-117.17,83.59 -117.70,88.94 -119.30,92.83 -121.96,95.26 -125.69,96.23"/>
    </edge>
    <edge id=":J9_9" function="internal">
        <lane id=":J9_9_0" index="0" speed="7.60" length="12.13" shape="-125.87,93.04 -123.46,92.33 -121.75,90.52 -120.71,87.60 -120.37,83.59"/>
    </edge>
    <edge id=":J9_10" function="internal">
        <lane id=":J9_10_0" index="0" speed="13.89" length="18.61" shape="-125.87,93.04 -121.75,92.06 -117.24,89.95 -112.95,87.31 -109.43,84.74"/>
    </edge>
    <edge id=":J9_11" function="internal">
        <lane id=":J9_11_0" index="0" speed="13.89" length="20.32" shape="-125.87,93.04 -105.56,92.57"/>
    </edge>

    <edge id="-E0" from="J19" to="J16" priority="-1">
        <lane id="-E0_0" index="0" speed="13.89" length="81.28" shape="30.85,75.31 -50.42,73.82"/>
        <lane id="-E0_1" index="1" speed="13.89" length="81.28" shape="30.90,72.11 -50.36,70.62"/>
    </edge>
    <edge id="-E16" from="J10" to="J9" priority="-1">
        <lane id="-E16_0" index="0" speed="13.89" length="31.25" shape="-117.17,52.34 -117.17,83.59"/>
    </edge>
    <edge id="-E17" from="J9" to="J11" priority="-1">
        <lane id="-E17_0" index="0" speed="13.89" length="10.14" shape="-125.69,96.23 -135.81,96.82"/>
    </edge>
    <edge id="-E18" from="J10" to="J12" priority="-1">
        <lane id="-E18_0" index="0" speed="13.89" length="10.71" shape="-125.90,45.38 -136.59,44.93"/>
        <lane id="-E18_1" index="1" speed="13.89" length="10.71" shape="-125.76,42.18 -136.46,41.73"/>
    </edge>
    <edge id="-E19" from="J13" to="J9" priority="-1">
        <lane id="-E19_0" index="0" speed="13.89" length="37.95" shape="-67.60,95.59 -105.54,95.77"/>
    </edge>
    <edge id="-E20" from="J14" to="J10" priority="-1">
        <lane id="-E20_0" index="0" speed="13.89" length="36.58" shape="-70.37,41.60 -106.94,42.26"/>
    </edge>
    <edge id="-E21" from="J15" to="J10" priority="-1">
        <lane id="-E21_0" index="0" speed="13.89" length="22.65" shape="-94.91,65.78 -111.32,50.17"/>
    </edge>
    <edge id="-E22" from="J9" to="J15" priority="-1">
        <lane id="-E22_0" index="0" speed="13.89" length="18.13" shape="-109.43,84.74 -95.25,73.44"/>
    </edge>
    <edge id="-E23" from="J16" to="J15" priority="-1">
        <lane id="-E23_0" index="0" speed="13.89" length="18.37" shape="-64.51,70.79 -82.87,71.35"/>
    </edge>
    <edge id="-E24" from="J16" to="J14" priority="-1">
        <lane id="-E24_0" index="0" speed="13.89" length="12.30" shape="-59.92,60.00 -63.26,48.16"/>
    </edge>
    <edge id="-E25" from="J13" to="J16" priority="-1">
        <lane id="-E25_0" index="0" speed="13.89" length="15.04" shape="-66.13,91.37 -60.71,77.34"/>
    </edge>
    <edge id="-E30" from="J20" to="J19" priority="-1">
        <lane id="-E30_0" index="0" speed="13.89" length="14.59" shape="38.99,45.39 39.66,59.97"/>
    </edge>
    <edge id="-E31" from="J14" to="J20" priority="-1">
        <lane id="-E31_0" index="0" speed="13.89" length="85.74" shape="-55.81,38.14 29.92,36.67"/>
    </edge>
    <edge id="-E32" from="J21" to="J20" priority="-1">
        <lane id="-E32_0" index="0" speed="13.89" length="17.69" shape="62.08,39.56 44.40,39.69"/>
    </edge>
    <edge id="-E33" from="J22" to="J21" priority="-1">
        <lane id="-E33_0" index="0" speed="13.89" length="15.79" shape="67.56,60.92 67.67,45.14"/>
    </edge>
    <edge id="-E34" from="J22" to="J19" priority="-1">
        <lane id="-E34_0" index="0" speed="13.89" length="16.47" shape="61.65,76.02 45.19,75.61"/>
        <lane id="-E34_1" index="1" speed="13.89" length="16.47" shape="61.73,72.82 45.27,72.42"/>
    </edge>
    <edge id="-E35" from="J23" to="J22" priority="-1">
        <lane id="-E35_0" index="0" speed="13.89" length="31.13" shape="107.60,75.70 76.47,76.10"/>
        <lane id="-E35_1" index="1" speed="13.89" length="31.13" shape="107.56,72.50 76.43,72.90"/>
    </edge>
    <edge id="-E36" from="J24" to="J21" priority="-1">
        <lane id="-E36_0" index="0" speed="13.89" length="36.75" shape="113.25,39.50 76.50,39.50"/>
    </edge>
    <edge id="E0" from="J16" to="J19" priority="-1">
        <lane id="E0_0" index="0" speed="13.89" length="81.28" shape="-50.24,64.22 31.02,65.71"/>
        <lane id="E0_1" index="1" speed="13.89" length="81.28" shape="-50.30,67.42 30.96,68.91"/>
    </edge>
    <edge id="E16" from="J9" to="J10" priority="-1">
        <lane id="E16_0" index="0" speed="13.89" length="31.25" shape="-120.37,83.59 -120.37,52.34"/>
    </edge>
    <edge id="E17" from="J11" to="J9" priority="-1">
        <lane id="E17_0" index="0" speed="13.89" length="10.14" shape="-135.99,93.62 -125.87,93.04"/>
    </edge>
    <edge id="E18" from="J12" to="J10" priority="-1">
        <lane id="E18_0" index="0" speed="13.89" length="10.71" shape="-136.19,35.33 -125.49,35.79"/>
        <lane id="E18_1" index="1" speed="13.89" length="10.71" shape="-136.32,38.53 -125.63,38.99"/>
    </edge>
    <edge id="E19" from="J9" to="J13" priority="-1">
        <lane id="E19_0" index="0" speed="13.89" length="37.95" shape="-105.56,92.57 -67.61,92.39"/>
    </edge>
    <edge id="E20" from="J10" to="J14" priority="-1">
        <lane id="E20_0" index="0" speed="13.89" length="36.58" shape="-107.00,39.07 -70.43,38.40"/>
    </edge>
    <edge id="E21" from="J10" to="J15" priority="-1">
        <lane id="E21_0" index="0" speed="13.89" length="22.65" shape="-109.12,47.85 -92.71,63.46"/>
    </edge>
    <edge id="E22" from="J15" to="J9" priority="-1">
        <lane id="E22_0" index="0" speed="13.89" length="18.13" shape="-93.25,75.94 -107.43,87.24"/>
    </edge>
    <edge id="E23" from="J15" to="J16" priority="-1">
        <lane id="E23_0" index="0" speed="13.89" length="18.37" shape="-82.97,68.15 -64.61,67.59"/>
    </edge>
    <edge id="E24" from="J14" to="J16" priority="-1">
        <lane id="E24_0" index="0" speed="13.89" length="12.30" shape="-60.18,47.29 -56.84,59.13"/>
    </edge>
    <edge id="E25" from="J16" to="J13" priority="-1">
        <lane id="E25_0" index="0" speed="13.89" length="15.04" shape="-57.72,78.49 -63.14,92.52"/>
    </edge>
    <edge id="E30" from="J19" to="J20" priority="-1">
        <lane id="E30_0" index="0" speed="13.89" length="14.59" shape="36.47,60.12 35.80,45.54"/>
    </edge>
    <edge id="E31" from="J20" to="J14" priority="-1">
        <lane id="E31_0" index="0" speed="13.89" length="85.74" shape="29.98,39.87 -55.75,41.34"/>
    </edge>
    <edge id="E32" from="J20" to="J21" priority="-1">
        <lane id="E32_0" index="0" speed="13.89" length="17.69" shape="44.37,36.49 62.06,36.36"/>
    </edge>
    <edge id="E33" from="J21" to="J22" priority="-1">
        <lane id="E33_0" index="0" speed="13.89" length="15.79" shape="70.87,45.16 70.75,60.95"/>
    </edge>
    <edge id="E34" from="J19" to="J22" priority="-1">
        <lane id="E34_0" index="0" speed="13.89" length="16.47" shape="45.42,66.02 61.89,66.42"/>
        <lane id="E34_1" index="1" speed="13.89" length="16.47" shape="45.34,69.22 61.81,69.62"/>
    </edge>
    <edge id="E35" from="J22" to="J23" priority="-1">
        <lane id="E35_0" index="0" speed="13.89" length="31.13" shape="76.35,66.51 107.48,66.10"/>
        <lane id="E35_1" index="1" speed="13.89" length="31.13" shape="76.39,69.70 107.52,69.30"/>
    </edge>
    <edge id="E36" from="J21" to="J24" priority="-1">
        <lane id="E36_0" index="0" speed="13.89" length="36.75" shape="76.50,36.30 113.25,36.30"/>
    </edge>

    <tlLogic id="J10" type="static" programID="0" offset="0">
        <phase duration="18" state="GrrrrrrrrGGG"/>
        <phase duration="3"  state="yrrrrrrrryyy"/>
        <phase duration="20" state="GGGGrrrrrrrr"/>
        <phase duration="3"  state="yyyyrrrrrrrr"/>
        <phase duration="20" state="rrrrrrGGGGrr"/>
        <phase duration="3"  state="rrrrrryyyyrr"/>
        <phase duration="20" state="rrrGGGGrrrrr"/>
        <phase duration="3"  state="rrryyyyrrrrr"/>
    </tlLogic>
    <tlLogic id="J14" type="static" programID="0" offset="0">
        <phase duration="42" state="rrGGGg"/>
        <phase duration="3"  state="rryyyy"/>
        <phase duration="42" state="GGGrrr"/>
        <phase duration="3"  state="yyyrrr"/>
    </tlLogic>
    <tlLogic id="J15" type="static" programID="0" offset="0">
        <phase duration="42" state="GgrrGG"/>
        <phase duration="3"  state="yyrryy"/>
        <phase duration="42" state="rrGGGr"/>
        <phase duration="3"  state="rryyyr"/>
    </tlLogic>
    <tlLogic id="J16" type="static" programID="0" offset="0">
        <phase duration="38" state="GGgrrrGGgrrr"/>
        <phase duration="3"  state="yygrrryygrrr"/>
        <phase duration="6"  state="rrGrrrrrGrrr"/>
        <phase duration="3"  state="rryrrrrryrrr"/>
        <phase duration="37" state="rrrGGgrrrGGg"/>
        <phase duration="3"  state="rrryyyrrryyy"/>
    </tlLogic>
    <tlLogic id="J19" type="static" programID="0" offset="0">
        <phase duration="42" state="GGgrrGGG"/>
        <phase duration="3"  state="yyyrryyy"/>
        <phase duration="42" state="rrrGGGrr"/>
        <phase duration="3"  state="rrryyyrr"/>
    </tlLogic>
    <tlLogic id="J20" type="static" programID="0" offset="0">
        <phase duration="42" state="rrGGGg"/>
        <phase duration="3"  state="rryyyy"/>
        <phase duration="42" state="GGGrrr"/>
        <phase duration="3"  state="yyyrrr"/>
    </tlLogic>
    <tlLogic id="J21" type="static" programID="0" offset="0">
        <phase duration="42" state="GGGgrr"/>
        <phase duration="3"  state="yyyyrr"/>
        <phase duration="42" state="GrrrGG"/>
        <phase duration="3"  state="yrrryy"/>
    </tlLogic>
    <tlLogic id="J22" type="static" programID="0" offset="0">
        <phase duration="42" state="GGgrrGGG"/>
        <phase duration="3"  state="yyyrryyy"/>
        <phase duration="42" state="rrrGGGrr"/>
        <phase duration="3"  state="rrryyyrr"/>
    </tlLogic>
    <tlLogic id="J9" type="static" programID="0" offset="0">
        <phase duration="27" state="GggrrrrrrGGG"/>
        <phase duration="3"  state="yyyrrrrrryyy"/>
        <phase duration="27" state="rrrGGGGrrrrr"/>
        <phase duration="3"  state="rrryyyyrrrrr"/>
        <phase duration="27" state="rrrrrrGGGGrr"/>
        <phase duration="3"  state="rrrrrryyyyrr"/>
    </tlLogic>

    <junction id="J10" type="traffic_light" x="-118.77" y="40.88" incLanes="E16_0 -E21_0 -E20_0 E18_0 E18_1" intLanes=":J10_0_0 :J10_1_0 :J10_2_0 :J10_3_0 :J10_4_0 :J10_5_0 :J10_6_0 :J10_7_0 :J10_8_0 :J10_9_0 :J10_10_0 :J10_11_0" shape="-121.97,52.34 -115.57,52.34 -115.22,50.45 -114.78,50.09 -114.17,50.11 -113.39,50.53 -112.43,51.33 -108.01,46.69 -109.18,45.15 -109.19,44.61 -108.81,44.21 -108.05,43.96 -106.91,43.86 -107.03,37.47 -110.99,37.31 -113.88,36.78 -116.23,36.04 -118.58,35.25 -121.47,34.58 -125.42,34.19 -125.97,46.98 -123.75,47.65 -122.97,48.40 -122.41,49.44 -122.08,50.75">
        <request index="0"  response="000000000000" foes="000000000000" cont="0"/>
        <request index="1"  response="111100010000" foes="111100110000" cont="0"/>
        <request index="2"  response="110011010000" foes="110011110000" cont="0"/>
        <request index="3"  response="100010000000" foes="100010000000" cont="0"/>
        <request index="4"  response="100110000000" foes="100110000110" cont="0"/>
        <request index="5"  response="011110000110" foes="011110000110" cont="0"/>
        <request index="6"  response="000000000000" foes="010000000100" cont="0"/>
        <request index="7"  response="000000000000" foes="110000111100" cont="0"/>
        <request index="8"  response="000000000000" foes="110000110010" cont="0"/>
        <request index="9"  response="000000000000" foes="000000100010" cont="0"/>
        <request index="10" response="000111000000" foes="000111100110" cont="0"/>
        <request index="11" response="000110000000" foes="000110011110" cont="0"/>
    </junction>
    <junction id="J11" type="dead_end" x="-135.90" y="95.22" incLanes="-E17_0" intLanes="" shape="-135.90,95.22 -135.72,98.41 -135.90,95.22"/>
    <junction id="J12" type="dead_end" x="-136.39" y="40.13" incLanes="-E18_0 -E18_1" intLanes="" shape="-136.39,40.13 -136.66,46.52 -136.39,40.13"/>
    <junction id="J13" type="priority" x="-65.42" y="93.98" incLanes="E25_0 E19_0" intLanes=":J13_0_0 :J13_1_0" shape="-61.65,93.10 -67.62,90.79 -67.59,97.19 -64.99,96.73 -63.92,96.16 -63.01,95.36 -62.25,94.34">
        <request index="0" response="00" foes="00" cont="0"/>
        <request index="1" response="00" foes="00" cont="0"/>
    </junction>
    <junction id="J14" type="traffic_light" x="-63.93" y="39.88" incLanes="-E24_0 E31_0 E20_0" intLanes=":J14_0_0 :J14_1_0 :J14_2_0 :J14_3_0 :J14_4_0 :J14_6_0" shape="-64.80,48.60 -58.64,46.86 -58.80,44.71 -58.45,43.95 -57.82,43.41 -56.92,43.07 -55.72,42.94 -55.83,36.54 -70.46,36.80 -70.34,43.20 -67.95,43.76 -66.95,44.51 -66.10,45.56 -65.38,46.93">