<routes>
    <vType id="car" vClass="passenger" length="5" accel="3.5" decel="2.2" sigma="1.0" maxSpeed="10"/>
    <route id="route_0" edges="start e1-1 e2-1 e3-1 e4-1 e5-1 e6-1 e7-1 e8-1 e9-1 e11-1 e14-1 e16-0 e6-0 end"/>

    <flow id="flow_0" type="car" beg="0" end="0" number="10" from="start" to="end"/>

    <vehicle id="0" type="car" route="route_0" depart="0"/>
</routes>