<?xml version="1.0" encoding="UTF-8"?>

<!-- generated on 2021-12-15 17:32:55 by Eclipse SUMO netedit Version 1.10.0
<configuration xmlns:xsi="http://www.w3.org/2001/XMLSchema-instance" xsi:noNamespaceSchemaLocation="http://sumo.dlr.de/xsd/netconvertConfiguration.xsd">

    <input>
        <sumo-net-file value="test_sumo.net.xml"/>
    </input>

    <output>
        <output-file value="test_sumo.net.xml"/>
    </output>

    <processing>
        <geometry.min-radius.fix.railways value="false"/>
        <geometry.max-grade.fix value="false"/>
        <offset.disable-normalization value="true"/>
        <lefthand value="false"/>
    </processing>

    <junctions>
        <no-turnarounds value="true"/>
        <junctions.corner-detail value="5"/>
        <junctions.limit-turn-speed value="5.5"/>
        <rectangular-lane-cut value="false"/>
    </junctions>

    <pedestrian>
        <walkingareas value="false"/>
    </pedestrian>

    <report>
        <aggregate-warnings value="5"/>
    </report>

</configuration>
-->

<net version="1.9" junctionCornerDetail="5" limitTurnSpeed="5.50" xmlns:xsi="http://www.w3.org/2001/XMLSchema-instance" xsi:noNamespaceSchemaLocation="http://sumo.dlr.de/xsd/net_file.xsd">

    <location netOffset="0.00,0.00" convBoundary="-877.15,136.17,-496.69,397.12" origBoundary="-10000000000.00,-10000000000.00,10000000000.00,10000000000.00" projParameter="!"/>

    <edge id=":gneJ53_0" function="internal">
        <lane id=":gneJ53_0_0" index="0" speed="6.59" length="9.15" shape="-717.62,264.54 -720.07,264.93 -721.83,266.01 -722.90,267.80 -723.27,270.28"/>
    </edge>
    <edge id=":gneJ53_1" function="internal">
        <lane id=":gneJ53_1_0" index="0" speed="13.89" length="14.44" shape="-717.62,264.54 -732.06,264.66"/>
    </edge>
    <edge id=":gneJ53_2" function="internal">
        <lane id=":gneJ53_2_0" index="0" speed="8.03" length="5.95" shape="-717.62,264.54 -721.46,264.04 -723.25,262.99"/>
    </edge>
    <edge id=":gneJ53_12" function="internal">
        <lane id=":gneJ53_12_0" index="0" speed="8.03" length="8.27" shape="-723.25,262.99 -724.23,262.41 -725.93,259.67 -726.56,255.81"/>
    </edge>
    <edge id=":gneJ53_3" function="internal">
        <lane id=":gneJ53_3_0" index="0" speed="6.55" length="9.09" shape="-723.36,255.75 -722.96,258.22 -721.87,259.98 -720.11,261.02 -717.66,261.34"/>
    </edge>
    <edge id=":gneJ53_4" function="internal">
        <lane id=":gneJ53_4_0" index="0" speed="13.89" length="14.54" shape="-723.36,255.75 -723.27,270.28"/>
    </edge>
    <edge id=":gneJ53_5" function="internal">
        <lane id=":gneJ53_5_0" index="0" speed="7.97" length="6.09" shape="-723.36,255.75 -723.83,259.63 -724.92,261.52"/>
    </edge>
    <edge id=":gneJ53_13" function="internal">
        <lane id=":gneJ53_13_0" index="0" speed="7.97" length="8.16" shape="-724.92,261.52 -725.44,262.41 -728.18,264.09 -732.06,264.66"/>
    </edge>
    <edge id=":gneJ53_6" function="internal">
        <lane id=":gneJ53_6_0" index="0" speed="6.47" length="9.03" shape="-732.07,261.46 -729.61,261.10 -727.88,260.04 -726.86,258.27 -726.56,255.81"/>
    </edge>
    <edge id=":gneJ53_7" function="internal">
        <lane id=":gneJ53_7_0" index="0" speed="13.89" length="14.41" shape="-732.07,261.46 -717.66,261.34"/>
    </edge>
    <edge id=":gneJ53_8" function="internal">
        <lane id=":gneJ53_8_0" index="0" speed="7.98" length="5.89" shape="-732.07,261.46 -728.19,262.00 -726.49,263.01"/>
    </edge>
    <edge id=":gneJ53_14" function="internal">
        <lane id=":gneJ53_14_0" index="0" speed="7.98" length="8.36" shape="-726.49,263.01 -725.43,263.65 -723.79,266.41 -723.27,270.28"/>
    </edge>
    <edge id=":gneJ53_9" function="internal">
        <lane id=":gneJ53_9_0" index="0" speed="6.48" length="9.04" shape="-726.47,270.26 -726.80,267.80 -727.84,266.05 -729.60,265.00 -732.06,264.66"/>
    </edge>
    <edge id=":gneJ53_10" function="internal">
        <lane id=":gneJ53_10_0" index="0" speed="13.89" length="14.45" shape="-726.47,270.26 -726.56,255.81"/>
    </edge>
    <edge id=":gneJ53_11" function="internal">
        <lane id=":gneJ53_11_0" index="0" speed="8.07" length="5.82" shape="-726.47,270.26 -725.89,266.40 -724.91,264.75"/>
    </edge>
    <edge id=":gneJ53_15" function="internal">
        <lane id=":gneJ53_15_0" index="0" speed="8.07" length="8.41" shape="-724.91,264.75 -724.23,263.62 -721.48,261.94 -717.66,261.34"/>
    </edge>
    <edge id=":gneJ54_0" function="internal">
        <lane id=":gneJ54_0_0" index="0" speed="6.62" length="9.15" shape="-728.26,171.25 -728.66,168.75 -729.74,166.96 -731.49,165.88 -733.93,165.49"/>
    </edge>
    <edge id=":gneJ54_1" function="internal">
        <lane id=":gneJ54_1_0" index="0" speed="7.97" length="14.25" shape="-728.26,171.25 -727.79,167.37 -726.18,164.58 -723.44,162.91 -719.57,162.33"/>
    </edge>
    <edge id=":gneJ54_2" function="internal">
        <lane id=":gneJ54_2_0" index="0" speed="6.48" length="9.03" shape="-719.55,165.53 -722.01,165.90 -723.74,166.96 -724.76,168.72 -725.06,171.18"/>
    </edge>
    <edge id=":gneJ54_3" function="internal">
        <lane id=":gneJ54_3_0" index="0" speed="13.89" length="14.38" shape="-719.55,165.53 -733.93,165.49"/>
    </edge>
    <edge id=":gneJ54_4" function="internal">
        <lane id=":gneJ54_4_0" index="0" speed="13.89" length="14.32" shape="-733.90,162.29 -719.57,162.33"/>
    </edge>
    <edge id=":gneJ54_5" function="internal">
        <lane id=":gneJ54_5_0" index="0" speed="8.09" length="5.80" shape="-733.90,162.29 -730.10,162.88 -728.43,163.91"/>
    </edge>
    <edge id=":gneJ54_6" function="internal">
        <lane id=":gneJ54_6_0" index="0" speed="8.09" length="8.39" shape="-728.43,163.91 -727.36,164.56 -725.68,167.33 -725.06,171.18"/>
    </edge>
    <edge id=":gneJ55_0" function="internal">
        <lane id=":gneJ55_0_0" index="0" speed="6.67" length="9.24" shape="-634.28,170.87 -634.74,168.34 -635.86,166.53 -637.64,165.46 -640.08,165.11"/>
    </edge>
    <edge id=":gneJ55_1" function="internal">
        <lane id=":gneJ55_1_0" index="0" speed="7.93" length="14.35" shape="-634.28,170.87 -633.89,166.93 -632.33,164.11 -629.60,162.42 -625.69,161.83"/>
    </edge>
    <edge id=":gneJ55_2" function="internal">
        <lane id=":gneJ55_2_0" index="0" speed="6.42" length="9.04" shape="-625.67,165.03 -628.13,165.40 -629.86,166.47 -630.84,168.24 -631.08,170.72"/>
    </edge>
    <edge id=":gneJ55_3" function="internal">
        <lane id=":gneJ55_3_0" index="0" speed="13.89" length="14.41" shape="-625.67,165.03 -640.08,165.11"/>
    </edge>
    <edge id=":gneJ55_4" function="internal">
        <lane id=":gneJ55_4_0" index="0" speed="13.89" length="14.41" shape="-640.09,161.91 -625.69,161.83"/>
    </edge>
    <edge id=":gneJ55_5" function="internal">
        <lane id=":gneJ55_5_0" index="0" speed="8.13" length="5.86" shape="-640.09,161.91 -636.30,162.44 -634.56,163.48"/>
    </edge>
    <edge id=":gneJ55_6" function="internal">
        <lane id=":gneJ55_6_0" index="0" speed="8.13" length="8.39" shape="-634.56,163.48 -633.53,164.09 -631.79,166.85 -631.08,170.72"/>
    </edge>
    <edge id=":gneJ56_0" function="internal">
        <lane id=":gneJ56_0_0" index="0" speed="6.50" length="9.03" shape="-531.29,170.18 -531.65,167.73 -532.70,165.99 -534.46,164.94 -536.91,164.60"/>
    </edge>
    <edge id=":gneJ56_1" function="internal">
        <lane id=":gneJ56_1_0" index="0" speed="11.91" length="4.26" shape="-531.29,170.18 -530.87,166.34 -530.73,165.97"/>
    </edge>
    <edge id=":gneJ56_4" function="internal">
        <lane id=":gneJ56_4_0" index="0" speed="11.91" length="11.47" shape="-530.73,165.97 -529.58,162.80 -527.43,159.56 -524.42,156.62"/>
    </edge>
    <edge id=":gneJ56_2" function="internal">
        <lane id=":gneJ56_2_0" index="0" speed="13.62" length="13.67" shape="-536.92,161.40 -533.41,161.09 -530.25,160.18 -527.31,158.69 -524.42,156.62"/>
    </edge>
    <edge id=":gneJ56_3" function="internal">
        <lane id=":gneJ56_3_0" index="0" speed="8.00" length="14.20" shape="-536.92,161.40 -533.07,161.94 -530.31,163.58 -528.65,166.32 -528.09,170.17"/>
    </edge>
    <edge id=":gneJ57_0" function="internal">
        <lane id=":gneJ57_0_0" index="0" speed="13.89" length="14.45" shape="-527.88,253.59 -527.92,268.05"/>
    </edge>
    <edge id=":gneJ57_1" function="internal">
        <lane id=":gneJ57_1_0" index="0" speed="8.04" length="5.96" shape="-527.88,253.59 -528.42,257.43 -529.50,259.22"/>
    </edge>
    <edge id=":gneJ57_6" function="internal">
        <lane id=":gneJ57_6_0" index="0" speed="8.04" length="8.27" shape="-529.50,259.22 -530.07,260.19 -532.83,261.86 -536.70,262.45"/>
    </edge>
    <edge id=":gneJ57_2" function="internal">
        <lane id=":gneJ57_2_0" index="0" speed="6.55" length="9.10" shape="-536.74,259.25 -534.26,258.87 -532.49,257.81 -531.43,256.05 -531.08,253.60"/>
    </edge>
    <edge id=":gneJ57_3" function="internal">
        <lane id=":gneJ57_3_0" index="0" speed="7.97" length="14.27" shape="-536.74,259.25 -532.85,259.76 -530.09,261.40 -528.44,264.16 -527.92,268.05"/>
    </edge>
    <edge id=":gneJ57_4" function="internal">
        <lane id=":gneJ57_4_0" index="0" speed="6.47" length="9.03" shape="-531.12,268.02 -531.45,265.56 -532.49,263.81 -534.24,262.77 -536.70,262.45"/>
    </edge>
    <edge id=":gneJ57_5" function="internal">
        <lane id=":gneJ57_5_0" index="0" speed="13.89" length="14.42" shape="-531.12,268.02 -531.08,253.60"/>
    </edge>
    <edge id=":gneJ58_0" function="internal">
        <lane id=":gneJ58_0_0" index="0" speed="6.08" length="7.65" shape="-528.64,353.38 -528.96,355.45 -529.85,356.94 -531.34,357.83 -533.41,358.14"/>
    </edge>
    <edge id=":gneJ58_1" function="internal">
        <lane id=":gneJ58_1_0" index="0" speed="3.91" length="2.55" shape="-533.43,354.94 -532.74,354.84 -532.25,354.54 -531.95,354.05 -531.84,353.36"/>
    </edge>
    <edge id=":gneJ59_0" function="internal">
        <lane id=":gneJ59_0_0" index="0" speed="13.89" length="14.42" shape="-628.32,358.87 -642.74,358.99"/>
    </edge>
    <edge id=":gneJ59_1" function="internal">
        <lane id=":gneJ59_1_0" index="0" speed="7.86" length="5.95" shape="-628.32,358.87 -632.31,358.33 -633.94,357.32"/>
    </edge>
    <edge id=":gneJ59_6" function="internal">
        <lane id=":gneJ59_6_0" index="0" speed="7.86" length="8.57" shape="-633.94,357.32 -635.06,356.63 -636.57,353.77 -636.84,349.75"/>
    </edge>
    <edge id=":gneJ59_2" function="internal">
        <lane id=":gneJ59_2_0" index="0" speed="6.33" length="9.04" shape="-633.65,349.99 -633.48,352.49 -632.54,354.27 -630.83,355.33 -628.34,355.67"/>
    </edge>
    <edge id=":gneJ59_3" function="internal">
        <lane id=":gneJ59_3_0" index="0" speed="8.29" length="14.32" shape="-633.65,349.99 -634.47,353.90 -636.26,356.70 -639.01,358.40 -642.74,358.99"/>
    </edge>
    <edge id=":gneJ59_4" function="internal">
        <lane id=":gneJ59_4_0" index="0" speed="6.85" length="9.47" shape="-642.76,355.79 -640.34,355.40 -638.55,354.26 -637.38,352.38 -636.84,349.75"/>
    </edge>
    <edge id=":gneJ59_5" function="internal">
        <lane id=":gneJ59_5_0" index="0" speed="13.89" length="14.42" shape="-642.76,355.79 -628.34,355.67"/>
    </edge>
    <edge id=":gneJ60_0" function="internal">
        <lane id=":gneJ60_0_0" index="0" speed="13.89" length="14.41" shape="-718.37,359.67 -732.78,359.78"/>
    </edge>
    <edge id=":gneJ60_1" function="internal">
        <lane id=":gneJ60_1_0" index="0" speed="7.97" length="5.94" shape="-718.37,359.67 -722.25,359.14 -723.99,358.11"/>
    </edge>
    <edge id=":gneJ60_6" function="internal">
        <lane id=":gneJ60_6_0" index="0" speed="7.97" length="8.32" shape="-723.99,358.11 -725.01,357.50 -726.66,354.74 -727.18,350.86"/>
    </edge>
    <edge id=":gneJ60_2" function="internal">
        <lane id=":gneJ60_2_0" index="0" speed="6.47" length="9.03" shape="-723.98,350.89 -723.65,353.35 -722.61,355.10 -720.86,356.14 -718.40,356.47"/>
    </edge>
    <edge id=":gneJ60_3" function="internal">
        <lane id=":gneJ60_3_0" index="0" speed="8.05" length="14.22" shape="-723.98,350.89 -724.56,354.75 -726.22,357.53 -728.96,359.20 -732.78,359.78"/>
    </edge>
    <edge id=":gneJ60_4" function="internal">
        <lane id=":gneJ60_4_0" index="0" speed="6.57" length="9.12" shape="-732.80,356.58 -730.36,356.21 -728.61,355.13 -727.55,353.35 -727.18,350.86"/>
    </edge>
    <edge id=":gneJ60_5" function="internal">
        <lane id=":gneJ60_5_0" index="0" speed="13.89" length="14.40" shape="-732.80,356.58 -718.40,356.47"/>
    </edge>
    <edge id=":gneJ61_0" function="internal">
        <lane id=":gneJ61_0_0" index="0" speed="6.91" length="9.62" shape="-621.45,263.38 -623.94,263.78 -625.78,264.93 -626.98,266.82 -627.53,269.45"/>
    </edge>
    <edge id=":gneJ61_1" function="internal">
        <lane id=":gneJ61_1_0" index="0" speed="13.89" length="14.59" shape="-621.45,263.38 -636.03,263.55"/>
    </edge>
    <edge id=":gneJ61_2" function="internal">
        <lane id=":gneJ61_2_0" index="0" speed="8.11" length="5.86" shape="-621.45,263.38 -625.25,262.87 -627.00,261.85"/>
    </edge>
    <edge id=":gneJ61_12" function="internal">
        <lane id=":gneJ61_12_0" index="0" speed="8.11" length="8.38" shape="-627.00,261.85 -628.03,261.24 -629.77,258.50 -630.49,254.63"/>
    </edge>
    <edge id=":gneJ61_3" function="internal">
        <lane id=":gneJ61_3_0" index="0" speed="6.64" length="9.20" shape="-627.29,254.49 -626.83,257.00 -625.71,258.79 -623.93,259.85 -621.49,260.18"/>
    </edge>
    <edge id=":gneJ61_4" function="internal">
        <lane id=":gneJ61_4_0" index="0" speed="13.89" length="14.98" shape="-627.29,254.49 -627.18,258.23 -627.19,261.97 -627.30,265.71 -627.53,269.45"/>
    </edge>
    <edge id=":gneJ61_5" function="internal">
        <lane id=":gneJ61_5_0" index="0" speed="7.98" length="6.17" shape="-627.29,254.49 -627.69,258.41 -628.78,260.35"/>
    </edge>
    <edge id=":gneJ61_13" function="internal">
        <lane id=":gneJ61_13_0" index="0" speed="7.98" length="8.30" shape="-628.78,260.35 -629.28,261.23 -632.06,262.94 -636.03,263.55"/>
    </edge>
    <edge id=":gneJ61_6" function="internal">
        <lane id=":gneJ61_6_0" index="0" speed="6.48" length="9.18" shape="-636.07,260.35 -633.53,259.97 -631.76,258.89 -630.74,257.11 -630.49,254.63"/>
    </edge>
    <edge id=":gneJ61_7" function="internal">
        <lane id=":gneJ61_7_0" index="0" speed="13.89" length="14.59" shape="-636.07,260.35 -621.49,260.18"/>
    </edge>
    <edge id=":gneJ61_8" function="internal">
        <lane id=":gneJ61_8_0" index="0" speed="7.85" length="5.96" shape="-636.07,260.35 -632.07,260.88 -630.43,261.89"/>
    </edge>
    <edge id=":gneJ61_14" function="internal">
        <lane id=":gneJ61_14_0" index="0" speed="7.85" length="8.58" shape="-630.43,261.89 -629.32,262.57 -627.80,265.43 -627.53,269.45"/>
    </edge>
    <edge id=":gneJ61_9" function="internal">
        <lane id=":gneJ61_9_0" index="0" speed="6.32" length="9.04" shape="-630.72,269.21 -630.89,266.71 -631.83,264.93 -633.55,263.88 -636.03,263.55"/>
    </edge>
    <edge id=":gneJ61_10" function="internal">
        <lane id=":gneJ61_10_0" index="0" speed="13.89" length="14.59" shape="-630.72,269.21 -630.49,265.53 -630.38,261.93 -630.38,258.32 -630.49,254.63"/>
    </edge>
    <edge id=":gneJ61_11" function="internal">
        <lane id=":gneJ61_11_0" index="0" speed="8.34" length="5.94" shape="-630.72,269.21 -629.89,265.30 -628.84,263.67"/>
    </edge>
    <edge id=":gneJ61_15" function="internal">
        <lane id=":gneJ61_15_0" index="0" speed="8.34" length="8.52" shape="-628.84,263.67 -628.07,262.49 -625.27,260.78 -621.49,260.18"/>
    </edge>
    <edge id=":gneJ62_0" function="internal">
        <lane id=":gneJ62_0_0" index="0" speed="7.98" length="14.24" shape="-832.39,360.49 -836.26,359.96 -839.02,358.32 -840.67,355.57 -841.21,351.70"/>
    </edge>
    <edge id=":gneJ62_1" function="internal">
        <lane id=":gneJ62_1_0" index="0" speed="6.48" length="9.03" shape="-838.01,351.71 -837.67,354.17 -836.62,355.91 -834.87,356.95 -832.42,357.29"/>
    </edge>
    <edge id=":gneJ62_2" function="internal">
        <lane id=":gneJ62_2_0" index="0" speed="12.35" length="13.76" shape="-846.75,363.89 -844.41,361.19 -842.67,358.33 -841.59,355.21 -841.21,351.70"/>
    </edge>
    <edge id=":gneJ62_3" function="internal">
        <lane id=":gneJ62_3_0" index="0" speed="13.19" length="12.02" shape="-846.75,363.89 -843.44,361.03 -839.95,358.97 -836.55,357.82"/>
    </edge>
    <edge id=":gneJ62_4" function="internal">
        <lane id=":gneJ62_4_0" index="0" speed="13.19" length="4.18" shape="-836.55,357.82 -836.27,357.72 -832.42,357.29"/>
    </edge>
    <edge id=":gneJ63_0" function="internal">
        <lane id=":gneJ63_0_0" index="0" speed="6.51" length="8.98" shape="-832.09,265.04 -834.52,265.40 -836.26,266.45 -837.31,268.19 -837.67,270.62"/>
    </edge>
    <edge id=":gneJ63_1" function="internal">
        <lane id=":gneJ63_1_0" index="0" speed="8.00" length="14.11" shape="-832.09,265.04 -835.92,264.51 -838.66,262.89 -840.33,260.16 -840.93,256.35"/>
    </edge>
    <edge id=":gneJ63_2" function="internal">
        <lane id=":gneJ63_2_0" index="0" speed="6.51" length="8.98" shape="-837.73,256.31 -837.35,258.74 -836.29,260.47 -834.54,261.50 -832.10,261.84"/>
    </edge>
    <edge id=":gneJ63_3" function="internal">
        <lane id=":gneJ63_3_0" index="0" speed="13.89" length="14.31" shape="-837.73,256.31 -837.67,270.62"/>
    </edge>
    <edge id=":gneJ63_4" function="internal">
        <lane id=":gneJ63_4_0" index="0" speed="13.89" length="14.26" shape="-840.87,270.61 -840.93,256.35"/>
    </edge>
    <edge id=":gneJ63_5" function="internal">
        <lane id=":gneJ63_5_0" index="0" speed="8.00" length="5.83" shape="-840.87,270.61 -840.31,266.78 -839.29,265.10"/>
    </edge>
    <edge id=":gneJ63_6" function="internal">
        <lane id=":gneJ63_6_0" index="0" speed="8.00" length="8.28" shape="-839.29,265.10 -838.66,264.05 -835.93,262.40 -832.10,261.84"/>
    </edge>
    <edge id=":gneJ64_0" function="internal">
        <lane id=":gneJ64_0_0" index="0" speed="6.07" length="7.87" shape="-842.01,166.05 -841.73,163.91 -840.83,162.38 -839.30,161.48 -837.16,161.19"/>
    </edge>
    <edge id=":gneJ64_1" function="internal">
        <lane id=":gneJ64_1_0" index="0" speed="3.90" length="2.62" shape="-837.19,164.39 -837.91,164.49 -838.42,164.79 -838.72,165.30 -838.81,166.01"/>
    </edge>

    <edge id="e1-0" from="gneJ60" to="gneJ62" priority="-1">
        <lane id="e1-0_0" index="0" speed="13.89" length="99.62" shape="-732.78,359.78 -832.39,360.49"/>
    </edge>
    <edge id="e1-1" from="gneJ62" to="gneJ60" priority="-1">
        <lane id="e1-1_0" index="0" speed="13.89" length="99.62" shape="-832.42,357.29 -732.80,356.58"/>
    </edge>
    <edge id="e10-0" from="gneJ62" to="gneJ63" priority="-1">
        <lane id="e10-0_0" index="0" speed="13.89" length="81.09" shape="-841.21,351.70 -840.87,270.61"/>
    </edge>
    <edge id="e10-1" from="gneJ63" to="gneJ62" priority="-1">
        <lane id="e10-1_0" index="0" speed="13.89" length="81.09" shape="-837.67,270.62 -838.01,351.71"/>
    </edge>
    <edge id="e11-0" from="gneJ53" to="gneJ63" priority="-1">
        <lane id="e11-0_0" index="0" speed="13.89" length="100.04" shape="-732.06,264.66 -832.09,265.04"/>
    </edge>
    <edge id="e11-1" from="gneJ63" to="gneJ53" priority="-1">
        <lane id="e11-1_0" index="0" speed="13.89" length="100.04" shape="-832.10,261.84 -732.07,261.46"/>
    </edge>
    <edge id="e12-0" from="gneJ60" to="gneJ53" priority="-1">
        <lane id="e12-0_0" index="0" speed="13.89" length="80.61" shape="-727.18,350.86 -726.47,270.26"/>
    </edge>
    <edge id="e12-1" from="gneJ53" to="gneJ60" priority="-1">
        <lane id="e12-1_0" index="0" speed="13.89" length="80.61" shape="-723.27,270.28 -723.98,350.89"/>
    </edge>
    <edge id="e13-0" from="gneJ53" to="gneJ54" priority="-1">
        <lane id="e13-0_0" index="0" speed="13.89" length="84.58" shape="-726.56,255.81 -728.26,171.25"/>
    </edge>
    <edge id="e13-1" from="gneJ54" to="gneJ53" priority="-1">
        <lane id="e13-1_0" index="0" speed="13.89" length="84.58" shape="-725.06,171.18 -723.36,255.75"/>
    </edge>
    <edge id="e14-0" from="gneJ61" to="gneJ53" priority="-1">
        <lane id="e14-0_0" index="0" speed="13.89" length="81.59" shape="-636.03,263.55 -717.62,264.54"/>
    </edge>
    <edge id="e14-1" from="gneJ53" to="gneJ61" priority="-1">
        <lane id="e14-1_0" index="0" speed="13.89" length="81.59" shape="-717.66,261.34 -636.07,260.35"/>
    </edge>
    <edge id="e15-0" from="gneJ59" to="gneJ61" priority="-1">
        <lane id="e15-0_0" index="0" speed="13.89" length="80.77" shape="-636.84,349.75 -630.72,269.21"/>
    </edge>
    <edge id="e15-1" from="gneJ61" to="gneJ59" priority="-1">
        <lane id="e15-1_0" index="0" speed="13.89" length="80.77" shape="-627.53,269.45 -633.65,349.99"/>
    </edge>
    <edge id="e16-0" from="gneJ61" to="gneJ55" priority="-1">
        <lane id="e16-0_0" index="0" speed="13.89" length="83.85" shape="-630.49,254.63 -634.28,170.87"/>
    </edge>
    <edge id="e16-1" from="gneJ55" to="gneJ61" priority="-1">
        <lane id="e16-1_0" index="0" speed="13.89" length="83.85" shape="-631.08,170.72 -627.29,254.49"/>
    </edge>
    <edge id="e17-0" from="gneJ57" to="gneJ61" priority="-1">
        <lane id="e17-0_0" index="0" speed="13.89" length="84.75" shape="-536.70,262.45 -621.45,263.38"/>
    </edge>
    <edge id="e17-1" from="gneJ61" to="gneJ57" priority="-1">
        <lane id="e17-1_0" index="0" speed="13.89" length="84.75" shape="-621.49,260.18 -536.74,259.25"/>
    </edge>
    <edge id="e2-0" from="gneJ59" to="gneJ60" priority="-1">
        <lane id="e2-0_0" index="0" speed="13.89" length="75.64" shape="-642.74,358.99 -718.37,359.67"/>
    </edge>
    <edge id="e2-1" from="gneJ60" to="gneJ59" priority="-1">
        <lane id="e2-1_0" index="0" speed="13.89" length="75.64" shape="-718.40,356.47 -642.76,355.79"/>
    </edge>
    <edge id="e3-0" from="gneJ58" to="gneJ59" priority="-1">
        <lane id="e3-0_0" index="0" speed="13.89" length="94.92" shape="-533.41,358.14 -628.32,358.87"/>
    </edge>
    <edge id="e3-1" from="gneJ59" to="gneJ58" priority="-1">
        <lane id="e3-1_0" index="0" speed="13.89" length="94.92" shape="-628.34,355.67 -533.43,354.94"/>
    </edge>
    <edge id="e4-0" from="gneJ57" to="gneJ58" priority="-1">
        <lane id="e4-0_0" index="0" speed="13.89" length="85.34" shape="-527.92,268.05 -528.64,353.38"/>
    </edge>
    <edge id="e4-1" from="gneJ58" to="gneJ57" priority="-1">
        <lane id="e4-1_0" index="0" speed="13.89" length="85.34" shape="-531.84,353.36 -531.12,268.02"/>
    </edge>
    <edge id="e5-0" from="gneJ56" to="gneJ57" priority="-1">
        <lane id="e5-0_0" index="0" speed="13.89" length="83.42" shape="-528.09,170.17 -527.88,253.59"/>
    </edge>
    <edge id="e5-1" from="gneJ57" to="gneJ56" priority="-1">
        <lane id="e5-1_0" index="0" speed="13.89" length="83.42" shape="-531.08,253.60 -531.29,170.18"/>
    </edge>
    <edge id="e6-0" from="gneJ55" to="gneJ56" priority="-1">
        <lane id="e6-0_0" index="0" speed="13.89" length="88.76" shape="-625.69,161.83 -536.92,161.40"/>
    </edge>
    <edge id="e6-1" from="gneJ56" to="gneJ55" priority="-1">
        <lane id="e6-1_0" index="0" speed="13.89" length="88.76" shape="-536.91,164.60 -625.67,165.03"/>
    </edge>
    <edge id="e7-0" from="gneJ54" to="gneJ55" priority="-1">
        <lane id="e7-0_0" index="0" speed="13.89" length="79.48" shape="-719.57,162.33 -640.09,161.91"/>
    </edge>
    <edge id="e7-1" from="gneJ55" to="gneJ54" priority="-1">
        <lane id="e7-1_0" index="0" speed="13.89" length="79.48" shape="-640.08,165.11 -719.55,165.53"/>
    </edge>
    <edge id="e8-0" from="gneJ64" to="gneJ54" priority="-1">
        <lane id="e8-0_0" index="0" speed="13.89" length="103.27" shape="-837.16,161.19 -733.90,162.29"/>
    </edge>
    <edge id="e8-1" from="gneJ54" to="gneJ64" priority="-1">
        <lane id="e8-1_0" index="0" speed="13.89" length="103.27" shape="-733.93,165.49 -837.19,164.39"/>
    </edge>
    <edge id="e9-0" from="gneJ63" to="gneJ64" priority="-1">
        <lane id="e9-0_0" index="0" speed="13.89" length="90.30" shape="-840.93,256.35 -842.01,166.05"/>
    </edge>
    <edge id="e9-1" from="gneJ64" to="gneJ63" priority="-1">
        <lane id="e9-1_0" index="0" speed="13.89" length="90.30" shape="-838.81,166.01 -837.73,256.31"/>
    </edge>
    <edge id="end" from="gneJ56" to="gneJ69" priority="-1">
        <lane id="end_0" index="0" speed="13.89" length="34.41" shape="-524.42,156.62 -497.70,134.93"/>
    </edge>
    <edge id="start" from="gneJ70" to="gneJ62" priority="-1">
        <lane id="start_0" index="0" speed="13.89" length="45.01" shape="-878.29,396.00 -846.75,363.89"/>
    </edge>

    <tlLogic id="gneJ53" type="static" programID="0" offset="0">
        <phase duration="42" state="GGgrrrGGgrrr"/>
        <phase duration="3"  state="yyyrrryyyrrr"/>
        <phase duration="42" state="rrrGGgrrrGGg"/>
        <phase duration="3"  state="rrryyyrrryyy"/>
    </tlLogic>
    <tlLogic id="gneJ54" type="static" programID="0" offset="0">
        <phase duration="42" state="rrGGGg"/>
        <phase duration="3"  state="rryyyy"/>
        <phase duration="42" state="GGGrrr"/>
        <phase duration="3"  state="yyyrrr"/>
    </tlLogic>
    <tlLogic id="gneJ55" type="static" programID="0" offset="0">
        <phase duration="42" state="rrGGGg"/>
        <phase duration="3"  state="rryyyy"/>
        <phase duration="42" state="GGGrrr"/>
        <phase duration="3"  state="yyyrrr"/>
    </tlLogic>
    <tlLogic id="gneJ55" type="static" programID="1" offset="0">
        <phase duration="42" state="rrGGGg"/>
        <phase duration="3"  state="rryyyy"/>
        <phase duration="42" state="GGGrrr"/>
        <phase duration="3"  state="yyyrrr"/>
    </tlLogic>
    <tlLogic id="gneJ56" type="static" programID="0" offset="0">
        <phase duration="42" state="GGrr"/>
        <phase duration="3"  state="yyrr"/>
        <phase duration="42" state="GrGG"/>
        <phase duration="3"  state="yryy"/>
    </tlLogic>
    <tlLogic id="gneJ56" type="static" programID="1" offset="0">
        <phase duration="42" state="GGrr"/>
        <phase duration="3"  state="yyrr"/>
        <phase duration="42" state="GrGG"/>
        <phase duration="3"  state="yryy"/>
    </tlLogic>
    <tlLogic id="gneJ56" type="static" programID="2" offset="0">
        <phase duration="42" state="GGrr"/>
        <phase duration="3"  state="yyrr"/>
        <phase duration="42" state="GrGG"/>
        <phase duration="3"  state="yryy"/>
    </tlLogic>
    <tlLogic id="gneJ57" type="static" programID="0" offset="0">
        <phase duration="42" state="GgrrGG"/>
        <phase duration="3"  state="yyrryy"/>
        <phase duration="42" state="rrGGGr"/>
        <phase duration="3"  state="rryyyr"/>
    </tlLogic>
    <tlLogic id="gneJ57" type="static" programID="1" offset="0">
        <phase duration="42" state="GgrrGG"/>
        <phase duration="3"  state="yyrryy"/>
        <phase duration="42" state="rrGGGr"/>
        <phase duration="3"  state="rryyyr"/>
    </tlLogic>
    <tlLogic id="gneJ61" type="static" programID="0" offset="0">
        <phase duration="42" state="GGgrrrGGgrrr"/>
        <phase duration="3"  state="yyyrrryyyrrr"/>
        <phase duration="42" state="rrrGGgrrrGGg"/>
        <phase duration="3"  state="rrryyyrrryyy"/>
    </tlLogic>
    <tlLogic id="gneJ63" type="static" programID="0" offset="0">
        <phase duration="42" state="rrGGGg"/>
        <phase duration="3"  state="rryyyy"/>
        <phase duration="42" state="GGGrrr"/>
        <phase duration="3"  state="yyyrrr"/>
    </tlLogic>
    <tlLogic id="gneJ64" type="static" programID="0" offset="0">
        <phase duration="42" state="GG"/>
        <phase duration="3"  state="yy"/>
        <phase duration="42" state="GG"/>
        <phase duration="3"  state="yy"/>
    </tlLogic>

    <junction id="gneJ53" type="traffic_light" x="-724.81" y="263.03" incLanes="e14-0_0 e13-1_0 e11-1_0 e12-0_0" intLanes=":gneJ53_0_0 :gneJ53_1_0 :gneJ53_12_0 :gneJ53_3_0 :gneJ53_4_0 :gneJ53_13_0 :gneJ53_6_0 :gneJ53_7_0 :gneJ53_14_0 :gneJ53_9_0 :gneJ53_10_0 :gneJ53_15_0" shape="-717.60,266.14 -717.68,259.74 -719.91,259.32 -720.70,258.76 -721.27,257.97 -721.62,256.96 -721.76,255.71 -728.16,255.84 -728.56,258.07 -729.10,258.85 -729.86,259.41 -730.86,259.74 -732.07,259.86 -732.05,266.26 -729.83,266.69 -729.05,267.25 -728.50,268.02 -728.17,269.02 -728.07,270.24 -721.67,270.30 -721.20,268.01 -720.64,267.21 -719.85,266.63 -718.83,266.27">
        <request index="0"  response="000000000000" foes="000100010000" cont="0"/>
        <request index="1"  response="100000100000" foes="111100110000" cont="0"/>
        <request index="2"  response="100011100000" foes="110011110000" cont="1"/>
        <request index="3"  response="000010000000" foes="100010000000" cont="0"/>
        <request index="4"  response="000110000111" foes="100110000111" cont="0"/>
        <request index="5"  response="011110000110" foes="011110000110" cont="1"/>
        <request index="6"  response="000000000000" foes="010000000100" cont="0"/>
        <request index="7"  response="100000100000" foes="110000111100" cont="0"/>
        <request index="8"  response="100000100011" foes="110000110011" cont="1"/>
        <request index="9"  response="000000000010" foes="000000100010" cont="0"/>
        <request index="10" response="000111000110" foes="000111100110" cont="0"/>
        <request index="11" response="000110011110" foes="000110011110" cont="1"/>
    </junction>