<?xml version="1.0" encoding="UTF-8"?>

<!-- generated on 2022-04-10 21:56:55 by Eclipse SUMO netedit Version 1.12.0
<configuration xmlns:xsi="http://www.w3.org/2001/XMLSchema-instance" xsi:noNamespaceSchemaLocation="http://sumo.dlr.de/xsd/netconvertConfiguration.xsd">

    <input>
        <sumo-net-file value="/home/grazeli/TFM/TFM_SUMO_RL/src/sumo_network/osm.net.xml"/>
    </input>

    <output>
        <output-file value="/home/grazeli/TFM/TFM_SUMO_RL/src/sumo_network/osm.net.xml"/>
        <output.street-names value="true"/>
    </output>

    <processing>
        <geometry.min-radius.fix.railways value="false"/>
        <geometry.max-grade.fix value="false"/>
        <offset.disable-normalization value="true"/>
        <lefthand value="false"/>
    </processing>

    <junctions>
        <no-turnarounds value="true"/>
        <junctions.corner-detail value="5"/>
        <junctions.limit-turn-speed value="5.5"/>
        <rectangular-lane-cut value="false"/>
    </junctions>

    <pedestrian>
        <walkingareas value="false"/>
    </pedestrian>

    <report>
        <aggregate-warnings value="5"/>
    </report>

</configuration>
-->

<net version="1.9" junctionCornerDetail="5" limitTurnSpeed="5.50" xmlns:xsi="http://www.w3.org/2001/XMLSchema-instance" xsi:noNamespaceSchemaLocation="http://sumo.dlr.de/xsd/net_file.xsd">

    <location netOffset="-427908.51,-4580390.73" convBoundary="84.33,118.00,2901.20,2884.04" origBoundary="2.095426,41.367908,2.187809,41.449991" projParameter="+proj=utm +zone=31 +ellps=WGS84 +datum=WGS84 +units=m +no_defs"/>

    <type id="highway.bridleway" priority="1" numLanes="1" speed="2.78" allow="pedestrian" oneway="1" width="2.00"/>
    <type id="highway.bus_guideway" priority="1" numLanes="1" speed="27.78" allow="bus" oneway="1"/>
    <type id="highway.cycleway" priority="1" numLanes="1" speed="8.33" allow="bicycle" oneway="0" width="1.00"/>
    <type id="highway.footway" priority="1" numLanes="1" speed="2.78" allow="pedestrian" oneway="1" width="2.00"/>
    <type id="highway.ford" priority="1" numLanes="1" speed="2.78" allow="army" oneway="0"/>
    <type id="highway.living_street" priority="2" numLanes="1" speed="2.78" disallow="tram rail_urban rail rail_electric rail_fast ship" oneway="0"/>
    <type id="highway.motorway" priority="14" numLanes="2" speed="39.44" allow="private emergency authority army vip passenger hov taxi bus coach delivery truck trailer motorcycle evehicle custom1 custom2" oneway="1"/>
    <type id="highway.motorway_link" priority="9" numLanes="1" speed="22.22" allow="private emergency authority army vip passenger hov taxi bus coach delivery truck trailer motorcycle evehicle custom1 custom2" oneway="1"/>
    <type id="highway.path" priority="1" numLanes="1" speed="2.78" allow="pedestrian bicycle" oneway="0" width="2.00"/>
    <type id="highway.pedestrian" priority="1" numLanes="1" speed="2.78" allow="pedestrian" oneway="1" width="2.00"/>
    <type id="highway.primary" priority="12" numLanes="2" speed="27.78" disallow="tram rail_urban rail rail_electric rail_fast ship" oneway="0"/>
    <type id="highway.primary_link" priority="7" numLanes="1" speed="22.22" disallow="tram rail_urban rail rail_electric rail_fast ship" oneway="0"/>
    <type id="highway.raceway" priority="15" numLanes="2" speed="83.33" allow="vip" oneway="0"/>
    <type id="highway.residential" priority="3" numLanes="1" speed="13.89" disallow="tram rail_urban rail rail_electric rail_fast ship" oneway="0"/>
    <type id="highway.secondary" priority="11" numLanes="1" speed="27.78" disallow="tram rail_urban rail rail_electric rail_fast ship" oneway="0"/>
    <type id="highway.secondary_link" priority="6" numLanes="1" speed="22.22" disallow="tram rail_urban rail rail_electric rail_fast ship" oneway="0"/>
    <type id="highway.service" priority="1" numLanes="1" speed="5.56" allow="pedestrian delivery bicycle" oneway="0"/>
    <type id="highway.stairs" priority="1" numLanes="1" speed="1.39" allow="pedestrian" oneway="1" width="2.00"/>
    <type id="highway.step" priority="1" numLanes="1" speed="1.39" allow="pedestrian" oneway="1" width="2.00"/>
    <type id="highway.steps" priority="1" numLanes="1" speed="1.39" allow="pedestrian" oneway="1" width="2.00"/>
    <type id="highway.tertiary" priority="10" numLanes="1" speed="22.22" disallow="tram rail_urban rail rail_electric rail_fast ship" oneway="0"/>
    <type id="highway.tertiary_link" priority="5" numLanes="1" speed="22.22" disallow="tram rail_urban rail rail_electric rail_fast ship" oneway="0"/>
    <type id="highway.track" priority="1" numLanes="1" speed="5.56" allow="pedestrian motorcycle moped bicycle" oneway="0"/>
    <type id="highway.trunk" priority="13" numLanes="2" speed="27.78" disallow="pedestrian bicycle tram rail_urban rail rail_electric rail_fast ship" oneway="0"/>
    <type id="highway.trunk_link" priority="8" numLanes="1" speed="22.22" disallow="pedestrian bicycle tram rail_urban rail rail_electric rail_fast ship" oneway="0"/>
    <type id="highway.unclassified" priority="4" numLanes="1" speed="13.89" disallow="tram rail_urban rail rail_electric rail_fast ship" oneway="0"/>
    <type id="highway.unsurfaced" priority="1" numLanes="1" speed="8.33" disallow="tram rail_urban rail rail_electric rail_fast ship" oneway="0"/>
    <type id="railway.highspeed" priority="21" numLanes="1" speed="69.44" allow="rail_fast" oneway="1"/>
    <type id="railway.light_rail" priority="19" numLanes="1" speed="27.78" allow="rail_urban" oneway="1"/>
    <type id="railway.preserved" priority="16" numLanes="1" speed="27.78" allow="rail" oneway="1"/>
    <type id="railway.rail" priority="20" numLanes="1" speed="44.44" allow="rail" oneway="1"/>
    <type id="railway.subway" priority="18" numLanes="1" speed="27.78" allow="rail_urban" oneway="1"/>
    <type id="railway.tram" priority="17" numLanes="1" speed="13.89" allow="tram" oneway="1"/>

    <edge id=":1043786431_0" function="internal">
        <lane id=":1043786431_0_0" index="0" disallow="tram rail_urban rail rail_electric rail_fast ship" speed="6.54" length="9.04" shape="1942.71,924.38 1941.25,926.38 1940.76,928.37 1941.26,930.36 1942.74,932.33"/>
        <lane id=":1043786431_0_1" index="1" disallow="tram rail_urban rail rail_electric rail_fast ship" speed="7.35" length="11.72" shape="1942.71,924.38 1940.27,927.38 1939.08,930.09 1939.15,932.49 1940.48,934.59"/>
        <lane id=":1043786431_0_2" index="2" disallow="tram rail_urban rail rail_electric rail_fast ship" speed="8.13" length="14.54" shape="1942.71,924.38 1939.29,928.38 1937.40,931.80 1937.04,934.62 1938.22,936.86"/>
    </edge>
    <edge id=":1043786431_3" function="internal">
        <lane id=":1043786431_3_0" index="0" disallow="tram rail_urban rail rail_electric rail_fast ship" speed="13.89" length="17.58" shape="1942.71,924.38 1930.30,936.90"/>
        <lane id=":1043786431_3_1" index="1" disallow="tram rail_urban rail rail_electric rail_fast ship" speed="13.89" length="17.58" shape="1940.42,922.15 1928.04,934.63"/>
        <lane id=":1043786431_3_2" index="2" disallow="tram rail_urban rail rail_electric rail_fast ship" speed="13.89" length="17.58" shape="1938.13,919.91 1925.79,932.36"/>
    </edge>
    <edge id=":1043786431_6" function="internal">
        <lane id=":1043786431_6_0" index="0" disallow="tram rail_urban rail rail_electric rail_fast ship" speed="13.89" length="17.55" shape="1930.25,919.96 1942.74,932.33"/>
        <lane id=":1043786431_6_1" index="1" disallow="tram rail_urban rail rail_electric rail_fast ship" speed="13.89" length="17.55" shape="1928.01,922.24 1940.48,934.59"/>
        <lane id=":1043786431_6_2" index="2" disallow="tram rail_urban rail rail_electric rail_fast ship" speed="13.89" length="17.55" shape="1925.77,924.53 1938.22,936.86"/>
    </edge>
    <edge id=":1043786431_9" function="internal">
        <lane id=":1043786431_9_0" index="0" disallow="tram rail_urban rail rail_electric rail_fast ship" speed="7.28" length="11.68" shape="1925.77,924.53 1928.26,927.46 1929.47,930.13 1929.40,932.51 1928.04,934.63"/>
        <lane id=":1043786431_9_1" index="1" disallow="tram rail_urban rail rail_electric rail_fast ship" speed="6.45" length="8.96" shape="1925.77,924.53 1927.26,926.48 1927.76,928.44 1927.27,930.40 1925.79,932.36"/>
    </edge>
    <edge id=":104431832_0" function="internal">
        <lane id=":104431832_0_0" index="0" disallow="tram rail_urban rail rail_electric rail_fast ship" speed="13.89" length="1.21" shape="2671.82,1499.25 2672.40,1499.39 2672.79,1499.51 2673.17,1499.67 2673.70,1499.95"/>
        <lane id=":104431832_0_1" index="1" disallow="tram rail_urban rail rail_electric rail_fast ship" speed="13.89" length="1.21" shape="2671.09,1502.36 2671.44,1502.45 2671.67,1502.52 2671.90,1502.62 2672.22,1502.78"/>
        <lane id=":104431832_0_2" index="2" disallow="tram rail_urban rail rail_electric rail_fast ship" speed="13.89" length="1.21" shape="2670.36,1505.48 2670.48,1505.51 2670.55,1505.53 2670.63,1505.56 2670.74,1505.62"/>
    </edge>
    <edge id=":1121909724_0" function="internal">
        <lane id=":1121909724_0_0" index="0" disallow="tram rail_urban rail rail_electric rail_fast ship" speed="13.89" length="14.20" shape="579.98,778.67 589.83,768.53"/>
        <lane id=":1121909724_0_1" index="1" disallow="tram rail_urban rail rail_electric rail_fast ship" speed="13.89" length="14.20" shape="582.28,780.90 592.16,770.72"/>
        <lane id=":1121909724_0_2" index="2" disallow="tram rail_urban rail rail_electric rail_fast ship" speed="13.89" length="14.20" shape="584.59,783.12 594.49,772.91"/>
        <lane id=":1121909724_0_3" index="3" disallow="tram rail_urban rail rail_electric rail_fast ship" speed="13.89" length="14.20" shape="586.89,785.35 596.82,775.11"/>
    </edge>
    <edge id=":1121909724_4" function="internal">
        <lane id=":1121909724_4_0" index="0" disallow="tram rail_urban rail rail_electric rail_fast ship" speed="7.42" length="11.62" shape="586.89,785.35 589.88,782.92 592.57,781.71 594.96,781.72 597.06,782.95"/>
        <lane id=":1121909724_4_1" index="1" disallow="tram rail_urban rail rail_electric rail_fast ship" speed="6.60" length="9.01" shape="586.89,785.35 588.87,783.90 590.87,783.41 592.86,783.87 594.86,785.28"/>
    </edge>
    <edge id=":112426103_0" function="internal">
        <lane id=":112426103_0_0" index="0" disallow="tram rail_urban rail rail_electric rail_fast ship" speed="5.51" length="9.44" shape="2185.46,1446.95 2184.81,1444.08 2183.60,1442.79 2181.84,1443.06 2179.53,1444.90"/>
        <lane id=":112426103_0_1" index="1" disallow="tram rail_urban rail rail_electric rail_fast ship" speed="7.38" length="18.18" shape="2188.65,1446.62 2187.39,1441.10 2185.06,1438.61 2181.68,1439.14 2177.23,1442.68"/>
    </edge>
    <edge id=":112426103_2" function="internal">
        <lane id=":112426103_2_0" index="0" disallow="tram rail_urban rail rail_electric rail_fast ship" speed="13.89" length="16.69" shape="2188.65,1446.62 2187.66,1441.77 2186.25,1438.60 2184.80,1435.44 2183.70,1430.61"/>
        <lane id=":112426103_2_1" index="1" disallow="tram rail_urban rail rail_electric rail_fast ship" speed="13.89" length="16.69" shape="2188.65,1446.62 2186.87,1430.19"/>
    </edge>
    <edge id=":112426103_4" function="internal">
        <lane id=":112426103_4_0" index="0" disallow="tram rail_urban rail rail_electric rail_fast ship" speed="3.65" length="1.44" shape="2188.65,1446.62 2189.32,1445.34"/>
    </edge>
    <edge id=":112426103_10" function="internal">
        <lane id=":112426103_10_0" index="0" disallow="tram rail_urban rail rail_electric rail_fast ship" speed="3.65" length="3.23" shape="2189.32,1445.34 2190.07,1444.86 2190.91,1445.18 2191.83,1446.29"/>
    </edge>
    <edge id=":112426103_5" function="internal">
        <lane id=":112426103_5_0" index="0" disallow="tram rail_urban rail rail_electric rail_fast ship" speed="13.89" length="17.73" shape="2196.39,1428.96 2196.51,1433.99 2195.78,1437.45 2195.01,1440.92 2195.01,1445.96"/>
        <lane id=":112426103_5_1" index="1" disallow="tram rail_urban rail rail_electric rail_fast ship" speed="13.89" length="17.73" shape="2196.39,1428.96 2196.03,1434.16 2194.20,1437.62 2192.31,1441.07 2191.83,1446.29"/>
    </edge>
    <edge id=":112426103_7" function="internal">
        <lane id=":112426103_7_0" index="0" disallow="tram rail_urban rail rail_electric rail_fast ship" speed="13.47" length="6.01" shape="2193.22,1429.37 2192.43,1430.89 2189.89,1433.98 2189.69,1434.20"/>
        <lane id=":112426103_7_1" index="1" disallow="tram rail_urban rail rail_electric rail_fast ship" speed="12.63" length="1.37" shape="2190.04,1429.78 2189.20,1430.85"/>
    </edge>
    <edge id=":112426103_9" function="internal">
        <lane id=":112426103_9_0" index="0" disallow="tram rail_urban rail rail_electric rail_fast ship" speed="3.65" length="1.44" shape="2190.04,1429.78 2189.41,1431.08"/>
    </edge>
    <edge id=":112426103_11" function="internal">
        <lane id=":112426103_11_0" index="0" disallow="tram rail_urban rail rail_electric rail_fast ship" speed="13.47" length="14.76" shape="2189.69,1434.20 2185.59,1438.65 2179.53,1444.90"/>
    </edge>
    <edge id=":112426103_12" function="internal">
        <lane id=":112426103_12_0" index="0" disallow="tram rail_urban rail rail_electric rail_fast ship" speed="12.63" length="16.84" shape="2189.20,1430.85 2188.20,1432.12 2183.95,1436.34 2179.54,1440.50 2177.23,1442.68"/>
    </edge>
    <edge id=":112426103_13" function="internal">
        <lane id=":112426103_13_0" index="0" disallow="tram rail_urban rail rail_electric rail_fast ship" speed="3.65" length="3.23" shape="2189.41,1431.08 2188.66,1431.58 2187.82,1431.28 2186.87,1430.19"/>
    </edge>
    <edge id=":1126640615_0" function="internal">
        <lane id=":1126640615_0_0" index="0" disallow="tram rail_urban rail rail_electric rail_fast ship" speed="13.89" length="11.30" shape="2650.33,1617.02 2644.18,1626.56"/>
        <lane id=":1126640615_0_1" index="1" disallow="tram rail_urban rail rail_electric rail_fast ship" speed="13.89" length="11.30" shape="2647.63,1615.31 2641.50,1624.81"/>
        <lane id=":1126640615_0_2" index="2" disallow="tram rail_urban rail rail_electric rail_fast ship" speed="13.89" length="11.30" shape="2644.93,1613.60 2638.83,1623.05"/>
    </edge>
    <edge id=":1126640615_3" function="internal">
        <lane id=":1126640615_3_0" index="0" disallow="tram rail_urban rail rail_electric rail_fast ship" speed="7.09" length="11.96" shape="2636.79,1615.63 2640.13,1617.70 2642.03,1619.91 2642.49,1622.28 2641.50,1624.81"/>
        <lane id=":1126640615_3_1" index="1" disallow="tram rail_urban rail rail_electric rail_fast ship" speed="6.25" length="9.05" shape="2636.79,1615.63 2638.88,1617.06 2639.91,1618.77 2639.90,1620.77 2638.83,1623.05"/>
    </edge>
    <edge id=":1282870796_0" function="internal">
        <lane id=":1282870796_0_0" index="0" disallow="tram rail_urban rail rail_electric rail_fast ship" speed="6.52" length="8.64" shape="2166.61,1467.75 2164.65,1466.46 2162.71,1466.08 2160.81,1466.60 2158.94,1468.02"/>
        <lane id=":1282870796_0_1" index="1" disallow="tram rail_urban rail rail_electric rail_fast ship" speed="8.01" length="13.58" shape="2168.72,1465.35 2165.64,1463.32 2162.60,1462.72 2159.61,1463.53 2156.67,1465.76"/>
        <lane id=":1282870796_0_2" index="2" disallow="tram rail_urban rail rail_electric rail_fast ship" speed="9.27" length="18.52" shape="2170.84,1462.95 2166.63,1460.18 2162.48,1459.36 2158.40,1460.47 2154.39,1463.51"/>
    </edge>
    <edge id=":1282870796_3" function="internal">
        <lane id=":1282870796_3_0" index="0" disallow="tram rail_urban rail rail_electric rail_fast ship" speed="13.89" length="17.15" shape="2169.80,1454.77 2166.06,1458.21 2163.24,1460.27 2160.42,1462.34 2156.67,1465.76"/>
        <lane id=":1282870796_3_1" index="1" disallow="tram rail_urban rail rail_electric rail_fast ship" speed="13.89" length="17.15" shape="2167.53,1452.52 2163.79,1455.95 2160.97,1458.02 2158.14,1460.08 2154.39,1463.51"/>
    </edge>
    <edge id=":1297744704_0" function="internal">
        <lane id=":1297744704_0_0" index="0" disallow="tram rail_urban rail rail_electric rail_fast ship" speed="8.33" length="12.04" shape="560.75,2071.13 558.16,2068.37 555.60,2066.55 553.10,2065.65 550.64,2065.68"/>
        <lane id=":1297744704_0_1" index="1" disallow="tram rail_urban rail rail_electric rail_fast ship" speed="8.33" length="14.12" shape="560.75,2071.13 557.26,2067.13 554.30,2064.36 551.89,2062.83 550.01,2062.54"/>
    </edge>
    <edge id=":1297744704_2" function="internal">
        <lane id=":1297744704_2_0" index="0" disallow="tram rail_urban rail rail_electric rail_fast ship" speed="3.65" length="4.67" shape="560.75,2071.13 560.62,2069.69 560.98,2068.88 561.86,2068.68 563.23,2069.10"/>
    </edge>
    <edge id=":1297744704_3" function="internal">
        <lane id=":1297744704_3_0" index="0" disallow="tram rail_urban rail rail_electric rail_fast ship" speed="5.72" length="9.20" shape="565.54,2062.62 562.96,2063.53 561.71,2064.91 561.81,2066.77 563.23,2069.10"/>
    </edge>
    <edge id=":1297744704_4" function="internal">
        <lane id=":1297744704_4_0" index="0" disallow="tram rail_urban rail rail_electric rail_fast ship" speed="8.33" length="15.18" shape="565.54,2062.62 550.64,2065.68"/>
        <lane id=":1297744704_4_1" index="1" disallow="tram rail_urban rail rail_electric rail_fast ship" speed="8.33" length="15.18" shape="564.89,2059.48 550.01,2062.54"/>
        <lane id=":1297744704_4_2" index="2" disallow="tram rail_urban rail rail_electric rail_fast ship" speed="8.33" length="15.18" shape="564.25,2056.35 549.37,2059.40"/>
        <lane id=":1297744704_4_3" index="3" disallow="tram rail_urban rail rail_electric rail_fast ship" speed="8.33" length="15.18" shape="563.60,2053.22 548.74,2056.27"/>
        <lane id=":1297744704_4_4" index="4" disallow="tram rail_urban rail rail_electric rail_fast ship" speed="8.33" length="15.18" shape="562.95,2050.08 548.11,2053.13"/>
    </edge>
    <edge id=":1311619514_0" function="internal">
        <lane id=":1311619514_0_0" index="0" disallow="tram rail_urban rail rail_electric rail_fast ship" speed="13.89" length="1.76" shape="1897.79,2757.55 1896.08,2756.83"/>
        <lane id=":1311619514_0_1" index="1" disallow="tram rail_urban rail rail_electric rail_fast ship" speed="13.89" length="1.76" shape="1898.84,2754.53 1897.22,2753.84"/>
        <lane id=":1311619514_0_2" index="2" disallow="tram rail_urban rail rail_electric rail_fast ship" speed="13.89" length="1.76" shape="1899.89,2751.51 1898.36,2750.85"/>
    </edge>
    <edge id=":1311619514_3" function="internal">
        <lane id=":1311619514_3_0" index="0" disallow="tram rail_urban rail rail_electric rail_fast ship" speed="13.89" length="1.48" shape="1901.70,2742.09 1902.10,2742.17 1902.38,2742.23 1902.65,2742.31 1903.03,2742.44"/>
        <lane id=":1311619514_3_1" index="1" disallow="tram rail_urban rail rail_electric rail_fast ship" speed="13.89" length="1.48" shape="1900.55,2745.11 1900.98,2745.20 1901.28,2745.25 1901.57,2745.32 1901.99,2745.46"/>
        <lane id=":1311619514_3_2" index="2" disallow="tram rail_urban rail rail_electric rail_fast ship" speed="13.89" length="1.48" shape="1899.40,2748.13 1899.86,2748.22 1900.18,2748.27 1900.49,2748.34 1900.94,2748.48"/>
    </edge>
    <edge id=":1311770050_0" function="internal">
        <lane id=":1311770050_0_0" index="0" disallow="tram rail_urban rail rail_electric rail_fast ship" speed="13.89" length="15.44" shape="2545.61,1963.70 2541.86,1964.83 2539.57,1966.34 2537.64,1968.49 2534.96,1971.55"/>
        <lane id=":1311770050_0_1" index="1" disallow="tram rail_urban rail rail_electric rail_fast ship" speed="13.89" length="15.44" shape="2544.18,1960.73 2540.10,1961.97 2537.63,1963.64 2535.54,1966.01 2532.64,1969.35"/>
        <lane id=":1311770050_0_2" index="2" disallow="tram rail_urban rail rail_electric rail_fast ship" speed="13.89" length="15.44" shape="2542.75,1957.76 2538.35,1959.12 2535.69,1960.94 2533.45,1963.52 2530.32,1967.15"/>
        <lane id=":1311770050_0_3" index="3" disallow="tram rail_urban rail rail_electric rail_fast ship" speed="13.89" length="15.44" shape="2541.32,1954.79 2536.59,1956.26 2533.75,1958.24 2531.35,1961.04 2527.99,1964.95"/>
    </edge>
    <edge id=":1311770050_4" function="internal">
        <lane id=":1311770050_4_0" index="0" disallow="tram rail_urban rail rail_electric rail_fast ship" speed="13.89" length="12.78" shape="2523.35,1960.54 2525.73,1957.85 2527.07,1955.77 2528.00,1953.43 2529.10,1949.98"/>
        <lane id=":1311770050_4_1" index="1" disallow="tram rail_urban rail rail_electric rail_fast ship" speed="13.89" length="12.78" shape="2525.67,1962.74 2528.29,1959.81 2529.79,1957.55 2530.83,1955.00 2532.06,1951.24"/>
    </edge>
    <edge id=":1311770050_6" function="internal">
        <lane id=":1311770050_6_0" index="0" disallow="tram rail_urban rail rail_electric rail_fast ship" speed="3.65" length="1.44" shape="2525.67,1962.74 2527.08,1962.42"/>
    </edge>
    <edge id=":1311770050_7" function="internal">
        <lane id=":1311770050_7_0" index="0" disallow="tram rail_urban rail rail_electric rail_fast ship" speed="3.65" length="3.23" shape="2527.08,1962.42 2527.93,1962.68 2528.24,1963.52 2527.99,1964.95"/>
    </edge>
    <edge id=":1311773884_0" function="internal">
        <lane id=":1311773884_0_0" index="0" disallow="tram rail_urban rail rail_electric rail_fast ship" speed="6.55" length="9.01" shape="1040.87,2412.68 1042.28,2410.67 1042.72,2408.68 1042.18,2406.70 1040.67,2404.74"/>
    </edge>
    <edge id=":1311773884_1" function="internal">
        <lane id=":1311773884_1_0" index="0" disallow="tram rail_urban rail rail_electric rail_fast ship" speed="13.89" length="11.09" shape="1040.87,2412.68 1048.57,2404.62"/>
        <lane id=":1311773884_1_1" index="1" disallow="tram rail_urban rail rail_electric rail_fast ship" speed="13.89" length="11.09" shape="1043.21,2414.87 1050.87,2406.85"/>
        <lane id=":1311773884_1_2" index="2" disallow="tram rail_urban rail rail_electric rail_fast ship" speed="13.89" length="11.09" shape="1045.54,2417.06 1053.16,2409.08"/>
    </edge>
    <edge id=":1311773901_0" function="internal">
        <lane id=":1311773901_0_0" index="0" disallow="tram rail_urban rail rail_electric rail_fast ship" speed="6.52" length="9.00" shape="957.26,2322.78 955.27,2321.31 953.29,2320.83 951.32,2321.32 949.35,2322.80"/>
    </edge>
    <edge id=":1311773901_1" function="internal">
        <lane id=":1311773901_1_0" index="0" disallow="tram rail_urban rail rail_electric rail_fast ship" speed="13.89" length="11.14" shape="957.22,2314.91 949.35,2322.80"/>
        <lane id=":1311773901_1_1" index="1" disallow="tram rail_urban rail rail_electric rail_fast ship" speed="13.89" length="11.14" shape="954.96,2312.65 947.09,2320.54"/>
        <lane id=":1311773901_1_2" index="2" disallow="tram rail_urban rail rail_electric rail_fast ship" speed="13.89" length="11.14" shape="952.69,2310.39 944.82,2318.28"/>
    </edge>
    <edge id=":1349449218_0" function="internal">
        <lane id=":1349449218_0_0" index="0" disallow="tram rail_urban rail rail_electric rail_fast ship" speed="2.78" length="4.67" shape="2086.65,593.47 2087.02,594.86 2086.78,595.72 2085.95,596.06 2084.53,595.85"/>
    </edge>
    <edge id=":1374636407_0" function="internal">
        <lane id=":1374636407_0_0" index="0" disallow="tram rail_urban rail rail_electric rail_fast ship" speed="7.01" length="10.37" shape="2130.93,1109.17 2129.63,1111.26 2129.42,1113.48 2130.33,1115.81 2132.34,1118.27"/>
        <lane id=":1374636407_0_1" index="1" disallow="tram rail_urban rail rail_electric rail_fast ship" speed="7.75" length="12.88" shape="2130.93,1109.17 2128.67,1112.29 2127.78,1115.23 2128.26,1117.99 2130.10,1120.56"/>
        <lane id=":1374636407_0_2" index="2" disallow="tram rail_urban rail rail_electric rail_fast ship" speed="8.46" length="15.57" shape="2130.93,1109.17 2127.72,1113.32 2126.14,1116.98 2126.19,1120.16 2127.86,1122.84"/>
    </edge>
    <edge id=":1374636407_3" function="internal">
        <lane id=":1374636407_3_0" index="0" disallow="tram rail_urban rail rail_electric rail_fast ship" speed="11.11" length="17.49" shape="2130.93,1109.17 2120.14,1122.93"/>
    </edge>
    <edge id=":1374636407_4" function="internal">
        <lane id=":1374636407_4_0" index="0" disallow="tram rail_urban rail rail_electric rail_fast ship" speed="13.89" length="14.14" shape="2122.22,1108.38 2132.34,1118.27"/>
        <lane id=":1374636407_4_1" index="1" disallow="tram rail_urban rail rail_electric rail_fast ship" speed="13.89" length="14.14" shape="2119.99,1110.67 2130.10,1120.56"/>
        <lane id=":1374636407_4_2" index="2" disallow="tram rail_urban rail rail_electric rail_fast ship" speed="13.89" length="14.14" shape="2117.76,1112.96 2127.86,1122.84"/>
    </edge>
    <edge id=":1374636407_7" function="internal">
        <lane id=":1374636407_7_0" index="0" disallow="tram rail_urban rail rail_electric rail_fast ship" speed="6.44" length="8.82" shape="2117.76,1112.96 2119.23,1114.87 2119.74,1116.80 2119.28,1118.74 2117.85,1120.69"/>
    </edge>
    <edge id=":1374636541_0" function="internal">
        <lane id=":1374636541_0_0" index="0" disallow="tram rail_urban rail rail_electric rail_fast ship" speed="11.11" length="30.48" shape="2157.18,1162.10 2153.93,1131.79"/>
    </edge>
    <edge id=":1374636541_1" function="internal">
        <lane id=":1374636541_1_0" index="0" disallow="tram rail_urban rail rail_electric rail_fast ship" speed="3.65" length="1.44" shape="2157.18,1162.10 2157.85,1160.82"/>
    </edge>
    <edge id=":1374636541_11" function="internal">
        <lane id=":1374636541_11_0" index="0" disallow="tram rail_urban rail rail_electric rail_fast ship" speed="3.65" length="3.23" shape="2157.85,1160.82 2158.61,1160.34 2159.45,1160.66 2160.36,1161.77"/>
    </edge>
    <edge id=":1374636541_2" function="internal">
        <lane id=":1374636541_2_0" index="0" disallow="tram rail_urban rail rail_electric rail_fast ship" speed="5.49" length="9.97" shape="2168.91,1158.84 2166.25,1156.96 2164.47,1156.77 2163.57,1158.26 2163.55,1161.44"/>
        <lane id=":1374636541_2_1" index="1" disallow="tram rail_urban rail rail_electric rail_fast ship" speed="6.56" length="14.99" shape="2168.91,1158.84 2164.73,1155.81 2161.91,1155.29 2160.45,1157.28 2160.36,1161.77"/>
    </edge>
    <edge id=":1374636541_4" function="internal">
        <lane id=":1374636541_4_0" index="0" disallow="tram rail_urban rail rail_electric rail_fast ship" speed="6.95" length="31.10" shape="2168.91,1158.84 2165.06,1153.92 2160.22,1145.94 2155.97,1137.65 2153.93,1131.79"/>
    </edge>
    <edge id=":1374636541_5" function="internal">
        <lane id=":1374636541_5_0" index="0" disallow="tram rail_urban rail rail_electric rail_fast ship" speed="11.11" length="30.61" shape="2157.11,1131.44 2158.20,1136.82 2160.15,1144.57 2162.19,1153.26 2163.55,1161.44"/>
        <lane id=":1374636541_5_1" index="1" disallow="tram rail_urban rail rail_electric rail_fast ship" speed="11.11" length="30.61" shape="2157.11,1131.44 2160.36,1161.77"/>
    </edge>
    <edge id=":1374636541_7" function="internal">
        <lane id=":1374636541_7_0" index="0" disallow="tram rail_urban rail rail_electric rail_fast ship" speed="3.65" length="1.44" shape="2157.11,1131.44 2156.45,1132.72"/>
    </edge>
    <edge id=":1374636541_12" function="internal">
        <lane id=":1374636541_12_0" index="0" disallow="tram rail_urban rail rail_electric rail_fast ship" speed="3.65" length="3.23" shape="2156.45,1132.72 2155.70,1133.21 2154.86,1132.90 2153.93,1131.79"/>
    </edge>
    <edge id=":1374636541_8" function="internal">
        <lane id=":1374636541_8_0" index="0" disallow="tram rail_urban rail rail_electric rail_fast ship" speed="5.45" length="10.14" shape="2148.86,1134.28 2151.43,1136.39 2153.13,1136.67 2153.96,1135.14 2153.93,1131.79"/>
    </edge>
    <edge id=":1374636541_9" function="internal">
        <lane id=":1374636541_9_0" index="0" disallow="tram rail_urban rail rail_electric rail_fast ship" speed="13.89" length="29.61" shape="2146.66,1136.62 2153.63,1143.57 2158.70,1149.28 2161.97,1154.86 2163.55,1161.44"/>
        <lane id=":1374636541_9_1" index="1" disallow="tram rail_urban rail rail_electric rail_fast ship" speed="13.89" length="29.61" shape="2144.47,1138.95 2150.96,1145.27 2155.72,1150.32 2158.83,1155.39 2160.36,1161.77"/>
    </edge>
    <edge id=":1375310919_0" function="internal">
        <lane id=":1375310919_0_0" index="0" disallow="tram rail_urban rail rail_electric rail_fast ship" speed="8.82" length="13.47" shape="2555.34,1903.49 2558.42,1906.72 2561.33,1908.73 2564.07,1909.52 2566.66,1909.10"/>
    </edge>
    <edge id=":1375310919_1" function="internal">
        <lane id=":1375310919_1_0" index="0" disallow="tram rail_urban rail rail_electric rail_fast ship" speed="13.89" length="15.54" shape="2555.34,1903.49 2565.44,1914.94"/>
        <lane id=":1375310919_1_1" index="1" disallow="tram rail_urban rail rail_electric rail_fast ship" speed="13.89" length="15.54" shape="2552.85,1905.55 2556.22,1908.67 2558.21,1911.12 2560.09,1913.69 2563.14,1917.16"/>
        <lane id=":1375310919_1_2" index="2" disallow="tram rail_urban rail rail_electric rail_fast ship" speed="13.89" length="15.54" shape="2550.34,1907.63 2553.77,1910.79 2555.81,1913.27 2557.74,1915.87 2560.84,1919.39"/>
    </edge>
    <edge id=":1375310919_4" function="internal">
        <lane id=":1375310919_4_0" index="0" disallow="tram rail_urban rail rail_electric rail_fast ship" speed="13.89" length="18.18" shape="2549.13,1913.62 2554.63,1911.45 2559.19,1910.54 2563.10,1910.03 2566.66,1909.10"/>
    </edge>
    <edge id=":1375310919_5" function="internal">