<?xml version="1.0" encoding="UTF-8"?>

<!-- generated on 2021-12-10 19:03:30 by Eclipse SUMO duarouter Version 1.10.0
<configuration xmlns:xsi="http://www.w3.org/2001/XMLSchema-instance" xsi:noNamespaceSchemaLocation="http://sumo.dlr.de/xsd/duarouterConfiguration.xsd">

    <input>
        <net-file value="/home/grazeli/MAI/TFM/2021-12-10-19-02-16/osm.net.xml"/>
        <route-files value="/home/grazeli/MAI/TFM/2021-12-10-19-02-16/osm.passenger.trips.xml"/>
    </input>

    <output>
        <output-file value="/home/grazeli/MAI/TFM/2021-12-10-19-02-16/osm.passenger.trips.xml.tmp"/>
        <write-trips value="true"/>
    </output>

    <time>
        <begin value="0"/>
        <end value="3600"/>
    </time>

    <report>
        <no-warnings value="true"/>
        <ignore-errors value="true"/>
        <no-step-log value="true"/>
    </report>

</configuration>
-->

<routes xmlns:xsi="http://www.w3.org/2001/XMLSchema-instance" xsi:noNamespaceSchemaLocation="http://sumo.dlr.de/xsd/routes_file.xsd">
    <vType id="veh_passenger" vClass="passenger"/>
    <trip id="veh0" type="veh_passenger" depart="0.00" departLane="best" from="4745495#0" to="-309051293#1"/>
    <trip id="veh1" type="veh_passenger" depart="0.58" departLane="best" departSpeed="max" from="237960943#0" to="237649291#2"/>
    <trip id="veh2" type="veh_passenger" depart="1.15" departLane="best" from="531724278#0" to="4754981#10"/>
    <trip id="veh3" type="veh_passenger" depart="1.73" departLane="best" from="790634174#0" to="12373020#2"/>
    <trip id="veh4" type="veh_passenger" depart="2.31" departLane="best" from="295124098#0" to="-354392077#0"/>
    <trip id="veh5" type="veh_passenger" depart="2.88" departLane="best" from="-313395788#0" to="237522644#1"/>
    <trip id="veh6" type="veh_passenger" depart="3.46" departLane="best" from="4746907#4" to="401951398#11"/>
    <trip id="veh7" type="veh_passenger" depart="4.03" departLane="best" from="237655873#4" to="449991632#25"/>
    <trip id="veh8" type="veh_passenger" depart="4.61" departLane="best" from="550280513#2" to="-157565850#0"/>
    <trip id="veh9" type="veh_passenger" depart="5.19" departLane="best" from="549932650" to="4813522#2"/>
    <trip id="veh10" type="veh_passenger" depart="5.76" departLane="best" from="250683120#1" to="226319532#2"/>
    <trip id="veh11" type="veh_passenger" depart="6.34" departLane="best" from="906140207#5" to="246638756#4"/>
    <trip id="veh12" type="veh_passenger" depart="6.92" departLane="best" from="132556736#2" to="134565971#1"/>
    <trip id="veh13" type="veh_passenger" depart="7.49" departLane="best" from="601810762#3" to="450137744#1"/>
    <trip id="veh14" type="veh_passenger" depart="8.07" departLane="best" from="550090167#1" to="521045100#2"/>
    <trip id="veh15" type="veh_passenger" depart="8.65" departLane="best" from="36918686#1" to="908564077#0"/>
    <trip id="veh16" type="veh_passenger" depart="9.22" departLane="best" departSpeed="max" from="283764984#0" to="422439067#11"/>
    <trip id="veh17" type="veh_passenger" depart="9.80" departLane="best" from="570478919#28" to="450396236#3"/>
    <trip id="veh18" type="veh_passenger" depart="10.37" departLane="best" from="65184542#4" to="449991624#21"/>
    <trip id="veh20" type="veh_passenger" depart="11.53" departLane="best" from="237659853#11" to="238179151#4"/>
    <trip id="veh21" type="veh_passenger" depart="12.10" departLane="best" from="121830607#3" to="237659851#14"/>
    <trip id="veh22" type="veh_passenger" depart="12.68" departLane="best" from="140001505#0" to="237923121#3"/>
    <trip id="veh23" type="veh_passenger" depart="13.26" departLane="best" from="4744966#6" to="263405136#2"/>
    <trip id="veh24" type="veh_passenger" depart="13.83" departLane="best" from="271470038#3" to="237566137#0"/>
    <trip id="veh25" type="veh_passenger" depart="14.41" departLane="best" from="237914525#6" to="894715951#2"/>
    <trip id="veh26" type="veh_passenger" depart="14.99" departLane="best" from="4746243#5" to="450145197#4"/>
    <trip id="veh27" type="veh_passenger" depart="15.56" departLane="best" from="235748487#0" to="519560143"/>
    <trip id="veh28" type="veh_passenger" depart="16.14" departLane="best" from="22658031#6" to="272639450#40"/>
    <trip id="veh29" type="veh_passenger" depart="16.71" departLane="best" from="956893080#0" to="4744966#8"/>
    <trip id="veh30" type="veh_passenger" depart="17.29" departLane="best" from="423232178#5" to="4776440#10"/>
    <trip id="veh31" type="veh_passenger" depart="17.87" departLane="best" from="591631503#6" to="544248638#1"/>
    <trip id="veh32" type="veh_passenger" depart="18.44" departLane="best" from="237659853#8" to="-397481041#1"/>
    <trip id="veh33" type="veh_passenger" depart="19.02" departLane="best" departSpeed="max" from="243591203#0" to="237912796#2"/>
    <trip id="veh34" type="veh_passenger" depart="19.60" departLane="best" from="237645155#1" to="902150220#2"/>
    <trip id="veh35" type="veh_passenger" depart="20.17" departLane="best" from="68506255#6" to="239662764#2"/>
    <trip id="veh36" type="veh_passenger" depart="20.75" departLane="best" from="4746984#14" to="287871139#2"/>
    <trip id="veh37" type="veh_passenger" depart="21.33" departLane="best" from="853255412#4" to="308355155#0"/>
    <trip id="veh38" type="veh_passenger" depart="21.90" departLane="best" from="237914519#0" to="237725937#2"/>
    <trip id="veh39" type="veh_passenger" depart="22.48" departLane="best" from="44027589#0" to="237910178#0"/>
    <trip id="veh40" type="veh_passenger" depart="23.06" departLane="best" from="449991629" to="803424596#1"/>
    <trip id="veh42" type="veh_passenger" depart="24.21" departLane="best" from="987520328#3" to="328020785#2"/>
    <trip id="veh43" type="veh_passenger" depart="24.78" departLane="best" from="129169450#2" to="-555296657#3"/>
    <trip id="veh45" type="veh_passenger" depart="25.94" departLane="best" from="546578349#3" to="295124091#27"/>
    <trip id="veh46" type="veh_passenger" depart="26.51" departLane="best" from="10851731#9" to="27465410"/>
    <trip id="veh47" type="veh_passenger" depart="27.09" departLane="best" from="98746955#12" to="35467394#2"/>
    <trip id="veh48" type="veh_passenger" depart="27.67" departLane="best" from="908389903#0" to="651543579#9"/>
    <trip id="veh49" type="veh_passenger" depart="28.24" departLane="best" from="-237659844#4" to="49844253#3"/>
    <trip id="veh50" type="veh_passenger" depart="28.82" departLane="best" from="4776834#5" to="36704159#1"/>
    <trip id="veh51" type="veh_passenger" depart="29.40" departLane="best" from="237914525#1" to="4744990#6"/>
    <trip id="veh52" type="veh_passenger" depart="29.97" departLane="best" from="157328045#1" to="295281481#0"/>
    <trip id="veh53" type="veh_passenger" depart="30.55" departLane="best" from="308355198#0" to="905536828#2"/>
    <trip id="veh54" type="veh_passenger" depart="31.12" departLane="best" from="68506255#3" to="237910181#0"/>
    <trip id="veh55" type="veh_passenger" depart="31.70" departLane="best" from="32015691#7" to="237506927#2"/>
    <trip id="veh56" type="veh_passenger" depart="32.28" departLane="best" from="848503523#1" to="674433001#2"/>
    <trip id="veh57" type="veh_passenger" depart="32.85" departLane="best" from="238324885#1" to="4744966#1"/>
    <trip id="veh58" type="veh_passenger" depart="33.43" departLane="best" from="450369481#0" to="220245635#0"/>
    <trip id="veh59" type="veh_passenger" depart="34.01" departLane="best" from="542841016#2" to="37103026#0"/>
    <trip id="veh60" type="veh_passenger" depart="34.58" departLane="best" from="544614094#0" to="35468219"/>
    <trip id="veh61" type="veh_passenger" depart="35.16" departLane="best" from="-116315069#1" to="243598400#7"/>
    <trip id="veh62" type="veh_passenger" depart="35.74" departLane="best" from="-293858828#0" to="880513895#9"/>
    <trip id="veh63" type="veh_passenger" depart="36.31" departLane="best" from="68506263#3" to="570478919#29"/>
    <trip id="veh64" type="veh_passenger" depart="36.89" departLane="best" from="238866888#3" to="100318223#0"/>
    <trip id="veh65" type="veh_passenger" depart="37.46" departLane="best" from="68506260#1" to="903019487#1"/>
    <trip id="veh66" type="veh_passenger" depart="38.04" departLane="best" from="12373020#3" to="313379187#4"/>
    <trip id="veh67" type="veh_passenger" depart="38.62" departLane="best" from="116315045#11" to="542169704"/>
    <trip id="veh68" type="veh_passenger" depart="39.19" departLane="best" from="542990498#1" to="18504649#8"/>
    <trip id="veh69" type="veh_passenger" depart="39.77" departLane="best" from="312272295#1" to="4079509#3"/>
    <trip id="veh70" type="veh_passenger" depart="40.35" departLane="best" from="237914519#1" to="675305862#0"/>
    <trip id="veh71" type="veh_passenger" depart="40.92" departLane="best" from="295124098#2" to="237566140#1"/>
    <trip id="veh72" type="veh_passenger" depart="41.50" departLane="best" from="37103026#2" to="521045101#4"/>
    <trip id="veh73" type="veh_passenger" depart="42.08" departLane="best" from="237555363#4" to="238866888#0"/>
    <trip id="veh74" type="veh_passenger" depart="42.65" departLane="best" departSpeed="max" from="984712370" to="4745980#4"/>
    <trip id="veh75" type="veh_passenger" depart="43.23" departLane="best" from="300071293#4" to="34874723#0"/>
    <trip id="veh76" type="veh_passenger" depart="43.80" departLane="best" from="175291981#5" to="237652077#2"/>
    <trip id="veh77" type="veh_passenger" depart="44.38" departLane="best" from="248565673#3" to="449991632#16"/>
    <trip id="veh78" type="veh_passenger" depart="44.96" departLane="best" from="237659862#1" to="237645185#0"/>
    <trip id="veh79" type="veh_passenger" depart="45.53" departLane="best" from="116315056#1" to="46714528#12"/>
    <trip id="veh80" type="veh_passenger" depart="46.11" departLane="best" from="237659853#8" to="831182051#0"/>
    <trip id="veh81" type="veh_passenger" depart="46.69" departLane="best" from="651543581#0" to="115801086#5"/>
    <trip id="veh82" type="veh_passenger" depart="47.26" departLane="best" from="237725937#0" to="4752000#26"/>
    <trip id="veh83" type="veh_passenger" depart="47.84" departLane="best" from="237645185#1" to="185961564#5"/>
    <trip id="veh84" type="veh_passenger" depart="48.42" departLane="best" from="891567020#2" to="449991617#11"/>
    <trip id="veh85" type="veh_passenger" depart="48.99" departLane="best" from="31029325#0" to="54514989#3"/>
    <trip id="veh86" type="veh_passenger" depart="49.57" departLane="best" from="550090167#4" to="237519393#2"/>
    <trip id="veh87" type="veh_passenger" depart="50.14" departLane="best" from="136725371#3" to="295215804#1"/>
    <trip id="veh88" type="veh_passenger" depart="50.72" departLane="best" from="295124098#21" to="308861417#4"/>
    <trip id="veh89" type="veh_passenger" depart="51.30" departLane="best" from="525638416#0" to="4753775#5"/>
    <trip id="veh90" type="veh_passenger" depart="51.87" departLane="best" from="920602947#4" to="134575599#0"/>
    <trip id="veh91" type="veh_passenger" depart="52.45" departLane="best" from="294085157#18" to="246640825#1"/>
    <trip id="veh92" type="veh_passenger" depart="53.03" departLane="best" from="65184542#4" to="237725949#3"/>
    <trip id="veh93" type="veh_passenger" depart="53.60" departLane="best" from="237521115#2" to="307054784#1"/>
    <trip id="veh94" type="veh_passenger" depart="54.18" departLane="best" from="295124098#0" to="237923121#3"/>
    <trip id="veh95" type="veh_passenger" depart="54.76" departLane="best" from="237795734#4" to="878570268#0"/>
    <trip id="veh96" type="veh_passenger" depart="55.33" departLane="best" from="307054781#4" to="651543581#1"/>
    <trip id="veh97" type="veh_passenger" depart="55.91" departLane="best" from="4079520#0" to="-8380873#2"/>
    <trip id="veh98" type="veh_passenger" depart="56.48" departLane="best" from="9983715" to="571448020#5"/>
    <trip id="veh99" type="veh_passenger" depart="57.06" departLane="best" from="908375885#9" to="879179148#19"/>
    <trip id="veh100" type="veh_passenger" depart="57.64" departLane="best" from="601816557#1" to="22650940#2"/>
    <trip id="veh101" type="veh_passenger" depart="58.21" departLane="best" from="313379198#2" to="237566142#4"/>
    <trip id="veh102" type="veh_passenger" depart="58.79" departLane="best" from="294085157#1" to="10070631#1"/>
    <trip id="veh103" type="veh_passenger" depart="59.37" departLane="best" from="283764987#3" to="930193073#6"/>
    <trip id="veh104" type="veh_passenger" depart="59.94" departLane="best" from="237914520#2" to="545084610#3"/>
    <trip id="veh105" type="veh_passenger" depart="60.52" departLane="best" from="308355199#10" to="295124091#9"/>
    <trip id="veh106" type="veh_passenger" depart="61.10" departLane="best" from="906140207#7" to="984712368"/>
    <trip id="veh107" type="veh_passenger" depart="61.67" departLane="best" from="423231443#0" to="493086069#2"/>
    <trip id="veh108" type="veh_passenger" depart="62.25" departLane="best" from="226319539#0" to="238179176#8"/>
    <trip id="veh109" type="veh_passenger" depart="62.82" departLane="best" from="908375885#5" to="449991624#6"/>
    <trip id="veh110" type="veh_passenger" depart="63.40" departLane="best" from="384799563#2" to="532696001#0"/>
    <trip id="veh111" type="veh_passenger" depart="63.98" departLane="best" from="10070631#2" to="449991627#8"/>
    <trip id="veh112" type="veh_passenger" depart="64.55" departLane="best" from="328020777#1" to="620654185#8"/>
    <trip id="veh113" type="veh_passenger" depart="65.13" departLane="best" from="226319971#1" to="908375867#2"/>
    <trip id="veh114" type="veh_passenger" depart="65.71" departLane="best" from="121931996#13" to="237517572#9"/>
    <trip id="veh115" type="veh_passenger" depart="66.28" departLane="best" from="449991639#2" to="4753802#3"/>
    <trip id="veh116" type="veh_passenger" depart="66.86" departLane="best" from="237691685#0" to="173223709#1"/>
    <trip id="veh117" type="veh_passenger" depart="67.44" departLane="best" departSpeed="max" from="770048769#0" to="237725937#14"/>
    <trip id="veh118" type="veh_passenger" depart="68.01" departLane="best" from="449991639#17" to="450423876#5"/>
    <trip id="veh119" type="veh_passenger" depart="68.59" departLane="best" from="35172603" to="891567020#0"/>
    <trip id="veh120" type="veh_passenger" depart="69.17" departLane="best" from="237566138#3" to="491622344#0"/>
    <trip id="veh121" type="veh_passenger" depart="69.74" departLane="best" from="237725937#10" to="287871139#2"/>
    <trip id="veh122" type="veh_passenger" depart="70.32" departLane="best" from="4754981#12" to="238324872#2"/>
    <trip id="veh123" type="veh_passenger" depart="70.89" departLane="best" from="243591203#4" to="536376979#2"/>
    <trip id="veh124" type="veh_passenger" depart="71.47" departLane="best" from="116315098" to="308354914"/>
    <trip id="veh125" type="veh_passenger" depart="72.05" departLane="best" from="9930520#1" to="98746956#1"/>
    <trip id="veh126" type="veh_passenger" depart="72.62" departLane="best" from="116315114#2" to="237566142#0"/>
    <trip id="veh127" type="veh_passenger" depart="73.20" departLane="best" from="237914520#2" to="887682494#1"/>
    <trip id="veh128" type="veh_passenger" depart="73.78" departLane="best" from="71402933#3" to="68506260#2"/>
    <trip id="veh129" type="veh_passenger" depart="74.35" departLane="best" from="269871711#8" to="226319539#0"/>
    <trip id="veh130" type="veh_passenger" depart="74.93" departLane="best" from="571448020#2" to="483469232#2"/>
    <trip id="veh131" type="veh_passenger" depart="75.51" departLane="best" from="450369486#3" to="9412954#3"/>
    <trip id="veh132" type="veh_passenger" depart="76.08" departLane="best" from="4746974#0" to="-18596059#1"/>
    <trip id="veh133" type="veh_passenger" depart="76.66" departLane="best" from="553309959#1" to="238324867#3"/>
    <trip id="veh134" type="veh_passenger" depart="77.23" departLane="best" from="4752000#7" to="900167872#2"/>
    <trip id="veh135" type="veh_passenger" depart="77.81" departLane="best" from="19915981" to="165842956#13"/>
    <trip id="veh137" type="veh_passenger" depart="78.96" departLane="best" from="237923125#0" to="450137746#2"/>
    <trip id="veh138" type="veh_passenger" depart="79.54" departLane="best" from="511211618#1" to="237529479#6"/>
    <trip id="veh139" type="veh_passenger" depart="80.12" departLane="best" from="4744944#5" to="237910181#3"/>
    <trip id="veh140" type="veh_passenger" depart="80.69" departLane="best" from="313395786#8" to="831182050#0"/>
    <trip id="veh141" type="veh_passenger" depart="81.27" departLane="best" from="601634007#4" to="129169448#0"/>
    <trip id="veh142" type="veh_passenger" depart="81.85" departLane="best" from="295124098#21" to="237914537#2"/>
    <trip id="veh143" type="veh_passenger" depart="82.42" departLane="best" from="-126301387" to="543578063#1"/>
    <trip id="veh144" type="veh_passenger" depart="83.00" departLane="best" from="4745021#1" to="237805211#1"/>
    <trip id="veh145" type="veh_passenger" depart="83.57" departLane="best" from="532436408#5" to="422439067#0"/>
    <trip id="veh146" type="veh_passenger" depart="84.15" departLane="best" from="295263584#1" to="-223928337#1"/>
    <trip id="veh147" type="veh_passenger" depart="84.73" departLane="best" from="116343003#0" to="723488713#1"/>
    <trip id="veh148" type="veh_passenger" depart="85.30" departLane="best" from="831157593" to="403600282#0"/>
    <trip id="veh150" type="veh_passenger" depart="86.46" departLane="best" from="217164635#0" to="182072847#3"/>
    <trip id="veh151" type="veh_passenger" depart="87.03" departLane="best" from="238866891#0" to="803424597#0"/>
    <trip id="veh153" type="veh_passenger" depart="88.19" departLane="best" from="803424597#4" to="237566138#0"/>
    <trip id="veh154" type="veh_passenger" depart="88.76" departLane="best" from="237795734#0" to="13724827#2"/>
    <trip id="veh155" type="veh_passenger" depart="89.34" departLane="best" from="545084604#2" to="723488716#0"/>
    <trip id="veh156" type="veh_passenger" depart="89.91" departLane="best" from="294085157#6" to="450423878#2"/>
    <trip id="veh157" type="veh_passenger" depart="90.49" departLane="best" from="226319538#3" to="880513895#9"/>
    <trip id="veh159" type="veh_passenger" depart="91.64" departLane="best" from="550730492" to="708242303#1"/>
    <trip id="veh160" type="veh_passenger" depart="92.22" departLane="best" from="-307933389#2" to="526132002#3"/>
    <trip id="veh161" type="veh_passenger" depart="92.80" departLane="best" from="246638755#2" to="881656434#0"/>
    <trip id="veh162" type="veh_passenger" depart="93.37" departLane="best" from="549749257#7" to="653349598#1"/>
    <trip id="veh163" type="veh_passenger" depart="93.95" departLane="best" from="550730492" to="237912795#6"/>
    <trip id="veh164" type="veh_passenger" depart="94.53" departLane="best" from="545932590#1" to="145565048#3"/>
    <trip id="veh165" type="veh_passenger" depart="95.10" departLane="best" from="675395642#1" to="651533776#2"/>
    <trip id="veh166" type="veh_passenger" depart="95.68" departLane="best" from="237659844#1" to="552422732#2"/>
    <trip id="veh167" type="veh_passenger" depart="96.25" departLane="best" from="308355199#9" to="238324885#2"/>
    <trip id="veh168" type="veh_passenger" depart="96.83" departLane="best" from="546578351#2" to="237655877#2"/>
    <trip id="veh169" type="veh_passenger" depart="97.41" departLane="best" from="-307933384#3" to="237521092#10"/>
    <trip id="veh170" type="veh_passenger" depart="97.98" departLane="best" from="245676676#3" to="653349598#2"/>
    <trip id="veh171" type="veh_passenger" depart="98.56" departLane="best" from="908375882" to="237923123#16"/>
    <trip id="veh172" type="veh_passenger" depart="99.14" departLane="best" from="4745499#11" to="291731094#1"/>
    <trip id="veh173" type="veh_passenger" depart="99.71" departLane="best" from="918474433#0" to="363025532#6"/>
    <trip id="veh174" type="veh_passenger" depart="100.29" departLane="best" from="900167872#3" to="165842956#10"/>
    <trip id="veh175" type="veh_passenger" depart="100.87" departLane="best" from="908375892" to="237506927#2"/>
    <trip id="veh176" type="veh_passenger" depart="101.44" departLane="best" from="908375872#2" to="237910184#2"/>
    <trip id="veh177" type="veh_passenger" depart="102.02" departLane="best" from="146238370#1" to="295281243#3"/>
    <trip id="veh178" type="veh_passenger" depart="102.59" departLane="best" from="525638414#2" to="239117583#11"/>
    <trip id="veh179" type="veh_passenger" depart="103.17" departLane="best" from="450145197#4" to="330630825#2"/>
    <trip id="veh180" type="veh_passenger" depart="103.75" departLane="best" from="287522298#1" to="449991624#13"/>
    <trip id="veh181" type="veh_passenger" depart="104.32" departLane="best" from="237805210#9" to="490432352#0"/>
    <trip id="veh182" type="veh_passenger" depart="104.90" departLane="best" from="-116343001#2" to="879179148#13"/>
    <trip id="veh183" type="veh_passenger" depart="105.48" departLane="best" from="37067695#6" to="493086069#8"/>
    <trip id="veh184" type="veh_passenger" depart="106.05" departLane="best" from="532504847#0" to="4752018#5"/>
    <trip id="veh185" type="veh_passenger" depart="106.63" departLane="best" from="263405142#4" to="115801086#15"/>
    <trip id="veh186" type="veh_passenger" depart="107.21" departLane="best" from="4752018#14" to="245672925#0"/>
    <trip id="veh187" type="veh_passenger" depart="107.78" departLane="best" from="241975841#0" to="601810762#3"/>
    <trip id="veh188" type="veh_passenger" depart="108.36" departLane="best" from="514869760#0" to="238324874#2"/>
    <trip id="veh189" type="veh_passenger" depart="108.93" departLane="best" from="239117583#6" to="294085157#18"/>
    <trip id="veh190" type="veh_passenger" depart="109.51" departLane="best" from="294085157#16" to="238179176#2"/>
    <trip id="veh191" type="veh_passenger" depart="110.09" departLane="best" from="18512190#1" to="295124091#21"/>
    <trip id="veh192" type="veh_passenger" depart="110.66" departLane="best" from="902032667" to="4754981#9"/>
    <trip id="veh193" type="veh_passenger" depart="111.24" departLane="best" from="827052044#2" to="450369487#1"/>
    <trip id="veh194" type="veh_passenger" depart="111.82" departLane="best" from="238326399#0" to="404402522#3"/>
    <trip id="veh195" type="veh_passenger" depart="112.39" departLane="best" from="-11299615#5" to="237960949#7"/>
    <trip id="veh196" type="veh_passenger" depart="112.97" departLane="best" from="295281241#7" to="449991627#1"/>
    <trip id="veh197" type="veh_passenger" depart="113.55" departLane="best" from="4746984#1" to="308355199#6"/>
    <trip id="veh198" type="veh_passenger" depart="114.12" departLane="best" from="304693491#1" to="237566142#4"/>
    <trip id="veh199" type="veh_passenger" depart="114.70" departLane="best" from="547249781#2" to="22689730#1"/>
    <trip id="veh200" type="veh_passenger" depart="115.28" departLane="best" from="123630159#1" to="340350446#1"/>
    <trip id="veh201" type="veh_passenger" depart="115.85" departLane="best" from="4744939#6" to="246638751#1"/>
    <trip id="veh202" type="veh_passenger" depart="116.43" departLane="best" departSpeed="max" from="4755002#0" to="237652077#1"/>
    <trip id="veh203" type="veh_passenger" depart="117.00" departLane="best" from="237529495#0" to="-307933389#4"/>
    <trip id="veh204" type="veh_passenger" depart="117.58" departLane="best" from="237787045#0" to="309896346#2"/>
    <trip id="veh205" type="veh_passenger" depart="118.16" departLane="best" from="611629259#2" to="116315045#4"/>
    <trip id="veh206" type="veh_passenger" depart="118.73" departLane="best" from="295124091#12" to="457712221#2"/>
    <trip id="veh207" type="veh_passenger" depart="119.31" departLane="best" from="237529471#1" to="481121898#0"/>
    <trip id="veh208" type="veh_passenger" depart="119.89" departLane="best" from="315272793#3" to="237715987#1"/>
    <trip id="veh209" type="veh_passenger" depart="120.46" departLane="best" from="4746984#19" to="-14194648#3"/>
    <trip id="veh210" type="veh_passenger" depart="121.04" departLane="best" from="540281990#0" to="542990503#3"/>
    <trip id="veh211" type="veh_passenger" depart="121.62" departLane="best" from="145565048#9" to="295124095#6"/>
    <trip id="veh212" type="veh_passenger" depart="122.19" departLane="best" from="237506962#1" to="906395262#2"/>
    <trip id="veh213" type="veh_passenger" depart="122.77" departLane="best" from="35159839#9" to="-831182084#0"/>
    <trip id="veh214" type="veh_passenger" depart="123.34" departLane="best" from="237795732#1" to="601816556#0"/>
    <trip id="veh215" type="veh_passenger" depart="123.92" departLane="best" from="308355199#14" to="549518612#3"/>
    <trip id="veh216" type="veh_passenger" depart="124.50" departLane="best" from="4753773#1" to="9412955#2"/>
    <trip id="veh217" type="veh_passenger" depart="125.07" departLane="best" from="449991639#22" to="905203091#0"/>
    <trip id="veh218" type="veh_passenger" depart="125.65" departLane="best" from="785372924#1" to="450369484#0"/>
    <trip id="veh219" type="veh_passenger" depart="126.23" departLane="best" from="514858415#6" to="316789524#2"/>
    <trip id="veh220" type="veh_passenger" depart="126.80" departLane="best" from="570478919#9" to="404402522#2"/>
    <trip id="veh221" type="veh_passenger" depart="127.38" departLane="best" from="803424596#2" to="532436406#2"/>
    <trip id="veh222" type="veh_passenger" depart="127.96" departLane="best" from="31029328#5" to="237805201#3"/>
    <trip id="veh223" type="veh_passenger" depart="128.53" departLane="best" from="237790228#3" to="4744944#2"/>
    <trip id="veh224" type="veh_passenger" depart="129.11" departLane="best" from="45822675#2" to="237914526#2"/>
    <trip id="veh225" type="veh_passenger" depart="129.68" departLane="best" departSpeed="max" from="120007720#0" to="237960947#4"/>
    <trip id="veh226" type="veh_passenger" depart="130.26" departLane="best" from="237923123#3" to="243591201#0"/>
    <trip id="veh228" type="veh_passenger" depart="131.41" departLane="best" from="237660552#2" to="478725549#1"/>
    <trip id="veh229" type="veh_passenger" depart="131.99" departLane="best" from="490751790" to="106409535#1"/>
    <trip id="veh230" type="veh_passenger" depart="132.57" departLane="best" from="294085164" to="397481041#1"/>
    <trip id="veh231" type="veh_passenger" depart="133.14" departLane="best" from="295124091#19" to="237549911#3"/>
    <trip id="veh232" type="veh_passenger" depart="133.72" departLane="best" from="295124095#1" to="831182042"/>
    <trip id="veh233" type="veh_passenger" depart="134.30" departLane="best" from="449991628#5" to="4787846#7"/>
    <trip id="veh234" type="veh_passenger" depart="134.87" departLane="best" from="651533776#1" to="542841016#2"/>
    <trip id="veh235" type="veh_passenger" depart="135.45" departLane="best" from="284412609#1" to="-157317160#0"/>
    <trip id="veh236" type="veh_passenger" depart="136.02" departLane="best" from="257568501#5" to="538551234"/>
    <trip id="veh237" type="veh_passenger" depart="136.60" departLane="best" from="62213293#1" to="905524541#8"/>
    <trip id="veh238" type="veh_passenger" depart="137.18" departLane="best" from="295124094#0" to="532570624#0"/>
    <trip id="veh239" type="veh_passenger" depart="137.75" departLane="best" from="403600282#3" to="450137743#1"/>
    <trip id="veh240" type="veh_passenger" depart="138.33" departLane="best" from="237655875#0" to="237645175#9"/>
    <trip id="veh242" type="veh_passenger" depart="139.48" departLane="best" from="247548699#0" to="4755005#16"/>
    <trip id="veh243" type="veh_passenger" depart="140.06" departLane="best" from="294085157#21" to="22650940#0"/>
    <trip id="veh245" type="veh_passenger" depart="141.21" departLane="best" from="450613277#6" to="-313395788#0"/>
    <trip id="veh246" type="veh_passenger" depart="141.79" departLane="best" departSpeed="max" from="289979605#0" to="44029588#1"/>
    <trip id="veh247" type="veh_passenger" depart="142.36" departLane="best" from="-314679877#1" to="4745466#5"/>
    <trip id="veh248" type="veh_passenger" depart="142.94" departLane="best" from="19918552#2" to="308355199#13"/>
    <trip id="veh249" type="veh_passenger" depart="143.52" departLane="best" from="-884705757#1" to="272639450#36"/>
    <trip id="veh250" type="veh_passenger" depart="144.09" departLane="best" from="237645175#1" to="243716771#1"/>
    <trip id="veh251" type="veh_passenger" depart="144.67" departLane="best" from="542836620" to="272639450#36"/>
    <trip id="veh252" type="veh_passenger" depart="145.25" departLane="best" from="541430463#10" to="570478919#30"/>
    <trip id="veh253" type="veh_passenger" depart="145.82" departLane="best" from="237805201#3" to="121830607#0"/>
    <trip id="veh254" type="veh_passenger" depart="146.40" departLane="best" from="-293858828#0" to="37103026#0"/>
    <trip id="veh255" type="veh_passenger" depart="146.98" departLane="best" from="9988988#4" to="251684608#1"/>
    <trip id="veh256" type="veh_passenger" depart="147.55" departLane="best" from="4746907#8" to="544614092#3"/>
    <trip id="veh257" type="veh_passenger" depart="148.13" departLane="best" from="4746924#0" to="540083908#0"/>
    <trip id="veh258" type="veh_passenger" depart="148.70" departLane="best" from="903747291" to="237525159#0"/>
    <trip id="veh259" type="veh_passenger" depart="149.28" departLane="best" from="-294085186#0" to="220245631#5"/>
    <trip id="veh260" type="veh_passenger" depart="149.86" departLane="best" from="18502409#0" to="4752003#12"/>
    <trip id="veh261" type="veh_passenger" depart="150.43" departLane="best" from="443797519#0" to="237645175#1"/>
    <trip id="veh262" type="veh_passenger" depart="151.01" departLane="best" from="483469781#1" to="542956873"/>