<?xml version="1.0" encoding="UTF-8"?>

<!-- generated on 2022-03-09 20:13:35 by Eclipse SUMO netedit Version 1.12.0
<configuration xmlns:xsi="http://www.w3.org/2001/XMLSchema-instance" xsi:noNamespaceSchemaLocation="http://sumo.dlr.de/xsd/netconvertConfiguration.xsd">

    <input>
        <sumo-net-file value="/Users/gazelpaul/TFM/test/circle_network.net.xml"/>
    </input>

    <output>
        <output-file value="/Users/gazelpaul/TFM/test/circle_network.net.xml"/>
    </output>

    <processing>
        <geometry.min-radius.fix.railways value="false"/>
        <geometry.max-grade.fix value="false"/>
        <offset.disable-normalization value="true"/>
        <lefthand value="false"/>
    </processing>

    <junctions>
        <no-turnarounds value="true"/>
        <junctions.corner-detail value="5"/>
        <junctions.limit-turn-speed value="5.5"/>
        <rectangular-lane-cut value="false"/>
    </junctions>

    <pedestrian>
        <walkingareas value="false"/>
    </pedestrian>

    <report>
        <aggregate-warnings value="5"/>
    </report>

</configuration>
-->

<net version="1.9" junctionCornerDetail="5" limitTurnSpeed="5.50" xmlns:xsi="http://www.w3.org/2001/XMLSchema-instance" xsi:noNamespaceSchemaLocation="http://sumo.dlr.de/xsd/net_file.xsd">

    <location netOffset="0.00,0.00" convBoundary="-136.39,37.90,113.25,95.22" origBoundary="-10000000000.00,-10000000000.00,10000000000.00,10000000000.00" projParameter="!"/>

    <edge id=":J10_0" function="internal">
        <lane id=":J10_0_0" index="0" speed="7.74" length="12.80" shape="-120.37,52.34 -120.72,47.98 -121.76,44.83 -123.48,42.90 -125.90,42.18"/>
    </edge>
    <edge id=":J10_1" function="internal">
        <lane id=":J10_1_0" index="0" speed="9.78" length="21.40" shape="-120.37,52.34 -119.54,46.62 -117.03,42.50 -112.85,39.98 -107.00,39.06"/>
    </edge>
    <edge id=":J10_2" function="internal">
        <lane id=":J10_2_0" index="0" speed="7.45" length="19.21" shape="-120.37,52.34 -119.67,46.36 -117.56,43.62 -114.04,44.12 -109.12,47.85"/>
    </edge>
    <edge id=":J10_3" function="internal">
        <lane id=":J10_3_0" index="0" speed="5.54" length="9.88" shape="-111.33,50.17 -113.88,48.22 -115.71,47.93 -116.81,49.30 -117.17,52.34"/>
    </edge>
    <edge id=":J10_4" function="internal">
        <lane id=":J10_4_0" index="0" speed="13.89" length="16.90" shape="-111.33,50.17 -114.43,47.50 -118.10,44.96 -122.03,43.03 -125.90,42.18"/>
    </edge>
    <edge id=":J10_5" function="internal">
        <lane id=":J10_5_0" index="0" speed="7.43" length="19.40" shape="-111.33,50.17 -115.32,45.42 -115.93,41.98 -113.16,39.86 -107.00,39.06"/>
    </edge>
    <edge id=":J10_6" function="internal">
        <lane id=":J10_6_0" index="0" speed="5.47" length="9.76" shape="-106.95,42.26 -110.04,42.66 -111.44,43.73 -111.13,45.46 -109.12,47.85"/>
    </edge>
    <edge id=":J10_7" function="internal">
        <lane id=":J10_7_0" index="0" speed="8.59" length="16.31" shape="-106.95,42.26 -111.42,42.96 -114.62,44.87 -116.53,48.00 -117.17,52.34"/>
    </edge>
    <edge id=":J10_8" function="internal">
        <lane id=":J10_8_0" index="0" speed="13.89" length="18.96" shape="-106.95,42.26 -125.90,42.18"/>
    </edge>
    <edge id=":J10_9" function="internal">
        <lane id=":J10_9_0" index="0" speed="13.89" length="18.76" shape="-125.77,38.98 -107.00,39.06"/>
    </edge>
    <edge id=":J10_10" function="internal">
        <lane id=":J10_10_0" index="0" speed="13.89" length="19.12" shape="-125.77,38.98 -121.57,39.97 -116.93,42.20 -112.55,45.04 -109.12,47.85"/>
    </edge>
    <edge id=":J10_11" function="internal">
        <lane id=":J10_11_0" index="0" speed="9.03" length="17.75" shape="-125.77,38.98 -122.01,39.95 -119.32,42.50 -117.71,46.63 -117.17,52.34"/>
    </edge>
    <edge id=":J13_0" function="internal">
        <lane id=":J13_0_0" index="0" speed="6.20" length="5.78" shape="-63.14,92.52 -63.86,93.86 -64.85,94.81 -66.09,95.39 -67.60,95.59"/>
    </edge>
    <edge id=":J13_1" function="internal">
        <lane id=":J13_1_0" index="0" speed="3.97" length="1.93" shape="-67.61,92.39 -67.11,92.32 -66.70,92.13 -66.37,91.81 -66.13,91.37"/>
    </edge>
    <edge id=":J14_0" function="internal">
        <lane id=":J14_0_0" index="0" speed="7.69" length="10.48" shape="-63.26,48.16 -64.41,45.26 -65.98,43.19 -67.96,41.97 -70.37,41.60"/>
    </edge>
    <edge id=":J14_1" function="internal">
        <lane id=":J14_1_0" index="0" speed="7.62" length="15.28" shape="-63.26,48.16 -63.84,43.85 -62.79,40.74 -60.11,38.84 -55.81,38.14"/>
    </edge>
    <edge id=":J14_2" function="internal">
        <lane id=":J14_2_0" index="0" speed="6.02" length="9.07" shape="-55.75,41.34 -58.31,41.75 -59.90,42.88 -60.52,44.73 -60.18,47.30"/>
    </edge>
    <edge id=":J14_3" function="internal">
        <lane id=":J14_3_0" index="0" speed="13.89" length="14.62" shape="-55.75,41.34 -70.37,41.60"/>
    </edge>
    <edge id=":J14_4" function="internal">
        <lane id=":J14_4_0" index="0" speed="13.89" length="14.62" shape="-70.43,38.40 -55.81,38.14"/>
    </edge>
    <edge id=":J14_5" function="internal">
        <lane id=":J14_5_0" index="0" speed="9.02" length="3.73" shape="-70.43,38.40 -66.90,38.90 -66.76,38.99"/>
    </edge>
    <edge id=":J14_6" function="internal">
        <lane id=":J14_6_0" index="0" speed="9.02" length="11.00" shape="-66.76,38.99 -64.02,40.55 -61.78,43.35 -60.18,47.30"/>
    </edge>
    <edge id=":J15_0" function="internal">
        <lane id=":J15_0_0" index="0" speed="13.14" length="11.65" shape="-82.87,71.35 -86.05,71.69 -88.47,72.53 -90.69,73.93 -93.26,75.94"/>
    </edge>
    <edge id=":J15_1" function="internal">
        <lane id=":J15_1_0" index="0" speed="12.08" length="3.02" shape="-82.87,71.35 -85.87,71.07"/>
    </edge>
    <edge id=":J15_6" function="internal">
        <lane id=":J15_6_0" index="0" speed="12.08" length="10.59" shape="-85.87,71.07 -88.88,70.05 -91.90,68.28 -94.91,65.78"/>
    </edge>
    <edge id=":J15_2" function="internal">
        <lane id=":J15_2_0" index="0" speed="10.93" length="11.08" shape="-92.71,63.46 -90.20,65.56 -87.74,67.05 -85.33,67.91 -82.97,68.15"/>
    </edge>
    <edge id=":J15_3" function="internal">
        <lane id=":J15_3_0" index="0" speed="7.77" length="14.74" shape="-92.71,63.46 -90.16,66.70 -89.40,69.86 -90.43,72.94 -93.26,75.94"/>
    </edge>
    <edge id=":J15_4" function="internal">
        <lane id=":J15_4_0" index="0" speed="6.23" length="9.05" shape="-95.25,73.44 -93.52,71.60 -92.88,69.71 -93.35,67.77 -94.91,65.78"/>
    </edge>
    <edge id=":J15_5" function="internal">
        <lane id=":J15_5_0" index="0" speed="13.89" length="13.63" shape="-95.25,73.44 -92.38,71.32 -89.52,69.68 -86.44,68.60 -82.97,68.15"/>
    </edge>
    <edge id=":J16_0" function="internal">
        <lane id=":J16_0_0" index="0" speed="8.34" length="11.40" shape="-49.42,70.66 -51.88,71.06 -54.04,72.37 -55.89,74.59 -57.43,77.72"/>
    </edge>
    <edge id=":J16_1" function="internal">
        <lane id=":J16_1_0" index="0" speed="13.89" length="15.10" shape="-49.42,70.66 -64.51,70.79"/>
    </edge>
    <edge id=":J16_2" function="internal">
        <lane id=":J16_2_0" index="0" speed="9.17" length="3.52" shape="-49.42,70.66 -52.88,70.03"/>
    </edge>
    <edge id=":J16_12" function="internal">
        <lane id=":J16_12_0" index="0" speed="9.17" length="11.12" shape="-52.88,70.03 -55.71,68.30 -57.91,65.48 -59.48,61.56"/>
    </edge>
    <edge id=":J16_3" function="internal">
        <lane id=":J16_3_0" index="0" speed="7.86" length="10.53" shape="-56.40,60.69 -55.26,63.61 -53.70,65.71 -51.73,67.00 -49.34,67.46"/>
    </edge>
    <edge id=":J16_4" function="internal">
        <lane id=":J16_4_0" index="0" speed="13.89" length="17.28" shape="-56.40,60.69 -55.74,64.73 -55.73,69.26 -56.32,73.77 -57.43,77.72"/>
    </edge>
    <edge id=":J16_5" function="internal">
        <lane id=":J16_5_0" index="0" speed="7.76" length="5.23" shape="-56.40,60.69 -55.88,64.98 -56.20,65.83"/>
    </edge>
    <edge id=":J16_13" function="internal">
        <lane id=":J16_13_0" index="0" speed="7.76" length="10.53" shape="-56.20,65.83 -57.05,68.10 -59.93,70.03 -64.51,70.79"/>
    </edge>
    <edge id=":J16_6" function="internal">
        <lane id=":J16_6_0" index="0" speed="6.20" length="9.62" shape="-64.61,67.59 -61.75,67.13 -59.94,65.98 -59.19,64.12 -59.48,61.56"/>
    </edge>
    <edge id=":J16_7" function="internal">
        <lane id=":J16_7_0" index="0" speed="13.89" length="15.27" shape="-64.61,67.59 -49.34,67.46"/>
    </edge>
    <edge id=":J16_8" function="internal">
        <lane id=":J16_8_0" index="0" speed="7.48" length="4.80" shape="-64.61,67.59 -59.95,68.09 -59.86,68.15"/>
    </edge>
    <edge id=":J16_14" function="internal">
        <lane id=":J16_14_0" index="0" speed="7.48" length="11.21" shape="-59.86,68.15 -57.20,69.95 -56.36,73.16 -57.43,77.72"/>
    </edge>
    <edge id=":J16_9" function="internal">
        <lane id=":J16_9_0" index="0" speed="5.82" length="9.14" shape="-60.41,76.57 -59.80,73.97 -60.28,72.13 -61.85,71.07 -64.51,70.79"/>
    </edge>
    <edge id=":J16_10" function="internal">
        <lane id=":J16_10_0" index="0" speed="13.89" length="15.27" shape="-60.41,76.57 -59.32,72.93 -58.76,69.12 -58.80,65.28 -59.48,61.56"/>
    </edge>
    <edge id=":J16_11" function="internal">
        <lane id=":J16_11_0" index="0" speed="9.59" length="3.68" shape="-60.41,76.57 -58.76,73.28"/>
    </edge>
    <edge id=":J16_15" function="internal">
        <lane id=":J16_15_0" index="0" speed="9.59" length="11.65" shape="-58.76,73.28 -58.38,72.52 -55.86,69.65 -52.84,67.97 -49.34,67.46"/>
    </edge>
    <edge id=":J17_0" function="internal">
        <lane id=":J17_0_0" index="0" speed="13.89" length="0.31" shape="-1.77,71.76 -2.08,71.75"/>
    </edge>
    <edge id=":J17_1" function="internal">
        <lane id=":J17_1_0" index="0" speed="13.89" length="0.28" shape="-2.01,68.55 -1.73,68.56"/>
    </edge>
    <edge id=":J19_0" function="internal">
        <lane id=":J19_0_0" index="0" speed="13.89" length="14.35" shape="45.49,72.42 31.14,72.16"/>
    </edge>
    <edge id=":J19_1" function="internal">
        <lane id=":J19_1_0" index="0" speed="8.23" length="3.92" shape="45.49,72.42 41.76,71.78 41.65,71.71"/>
    </edge>
    <edge id=":J19_6" function="internal">
        <lane id=":J19_6_0" index="0" speed="8.23" length="10.35" shape="41.65,71.71 39.04,70.05 37.32,67.24 36.62,63.34"/>
    </edge>
    <edge id=":J19_2" function="internal">
        <lane id=":J19_2_0" index="0" speed="6.78" length="9.36" shape="39.81,63.20 40.27,65.78 41.39,67.65 43.15,68.80 45.57,69.22"/>
    </edge>
    <edge id=":J19_3" function="internal">
        <lane id=":J19_3_0" index="0" speed="7.90" length="14.42" shape="39.81,63.20 39.43,67.16 37.85,69.98 35.09,71.64 31.14,72.16"/>
    </edge>
    <edge id=":J19_4" function="internal">
        <lane id=":J19_4_0" index="0" speed="6.38" length="9.04" shape="31.18,68.96 33.66,68.64 35.39,67.59 36.37,65.83 36.62,63.34"/>
    </edge>
    <edge id=":J19_5" function="internal">
        <lane id=":J19_5_0" index="0" speed="13.89" length="14.39" shape="31.18,68.96 45.57,69.22"/>
    </edge>
    <edge id=":J20_0" function="internal">
        <lane id=":J20_0_0" index="0" speed="6.63" length="9.20" shape="35.80,45.54 35.34,43.02 34.21,41.24 32.43,40.19 29.98,39.87"/>
    </edge>
    <edge id=":J20_1" function="internal">
        <lane id=":J20_1_0" index="0" speed="7.93" length="14.34" shape="35.80,45.54 36.18,41.60 37.74,38.79 40.47,37.08 44.38,36.49"/>
    </edge>
    <edge id=":J20_2" function="internal">
        <lane id=":J20_2_0" index="0" speed="6.43" length="9.03" shape="44.40,39.69 41.94,40.06 40.22,41.14 39.24,42.91 39.00,45.39"/>
    </edge>
    <edge id=":J20_3" function="internal">
        <lane id=":J20_3_0" index="0" speed="13.89" length="14.42" shape="44.40,39.69 29.98,39.87"/>
    </edge>
    <edge id=":J20_4" function="internal">
        <lane id=":J20_4_0" index="0" speed="13.89" length="14.45" shape="29.93,36.67 44.38,36.49"/>
    </edge>
    <edge id=":J20_5" function="internal">
        <lane id=":J20_5_0" index="0" speed="8.10" length="4.05" shape="29.93,36.67 33.74,37.16 33.92,37.26"/>
    </edge>
    <edge id=":J20_6" function="internal">
        <lane id=":J20_6_0" index="0" speed="8.10" length="10.21" shape="33.92,37.26 36.53,38.77 38.28,41.52 39.00,45.39"/>
    </edge>
    <edge id=":J21_0" function="internal">
        <lane id=":J21_0_0" index="0" speed="6.54" length="9.09" shape="76.50,39.50 74.05,39.85 72.30,40.91 71.24,42.68 70.87,45.16"/>
    </edge>
    <edge id=":J21_1" function="internal">
        <lane id=":J21_1_0" index="0" speed="13.89" length="14.41" shape="76.50,39.50 62.09,39.55"/>
    </edge>
    <edge id=":J21_2" function="internal">
        <lane id=":J21_2_0" index="0" speed="13.89" length="14.44" shape="62.06,36.35 76.50,36.30"/>
    </edge>
    <edge id=":J21_3" function="internal">
        <lane id=":J21_3_0" index="0" speed="7.97" length="4.11" shape="62.06,36.35 65.94,36.88 66.11,36.98"/>
    </edge>
    <edge id=":J21_6" function="internal">
        <lane id=":J21_6_0" index="0" speed="7.97" length="10.14" shape="66.11,36.98 68.70,38.52 70.34,41.28 70.87,45.16"/>
    </edge>
    <edge id=":J21_4" function="internal">
        <lane id=":J21_4_0" index="0" speed="6.47" length="9.03" shape="67.67,45.13 67.34,42.68 66.30,40.93 64.55,39.89 62.09,39.55"/>
    </edge>
    <edge id=":J21_5" function="internal">
        <lane id=":J21_5_0" index="0" speed="8.03" length="14.22" shape="67.67,45.13 68.25,41.27 69.91,38.51 72.66,36.85 76.50,36.30"/>
    </edge>
    <edge id=":J22_0" function="internal">
        <lane id=":J22_0_0" index="0" speed="13.89" length="14.58" shape="76.36,72.90 61.78,72.82"/>
    </edge>
    <edge id=":J22_1" function="internal">
        <lane id=":J22_1_0" index="0" speed="7.97" length="4.23" shape="76.36,72.90 72.47,72.40 72.21,72.24"/>
    </edge>
    <edge id=":J22_6" function="internal">
        <lane id=":J22_6_0" index="0" speed="7.97" length="10.05" shape="72.21,72.24 69.70,70.77 68.06,68.01 67.53,64.12"/>
    </edge>
    <edge id=":J22_2" function="internal">
        <lane id=":J22_2_0" index="0" speed="6.46" length="9.03" shape="70.73,64.14 71.06,66.60 72.11,68.35 73.86,69.38 76.32,69.70"/>
    </edge>
    <edge id=":J22_3" function="internal">
        <lane id=":J22_3_0" index="0" speed="7.97" length="14.27" shape="70.73,64.14 70.15,68.02 68.46,70.76 65.67,72.36 61.78,72.82"/>
    </edge>
    <edge id=":J22_4" function="internal">
        <lane id=":J22_4_0" index="0" speed="6.47" length="9.04" shape="61.86,69.62 64.33,69.33 66.09,68.32 67.16,66.58 67.53,64.12"/>
    </edge>
    <edge id=":J22_5" function="internal">
        <lane id=":J22_5_0" index="0" speed="13.89" length="14.46" shape="61.86,69.62 76.32,69.70"/>
    </edge>
    <edge id=":J9_0" function="internal">
        <lane id=":J9_0_0" index="0" speed="13.89" length="20.15" shape="-105.55,95.77 -125.69,96.23"/>
    </edge>
    <edge id=":J9_1" function="internal">
        <lane id=":J9_1_0" index="0" speed="9.79" length="5.22" shape="-105.55,95.77 -110.73,95.18"/>
    </edge>
    <edge id=":J9_2" function="internal">
        <lane id=":J9_2_0" index="0" speed="7.55" length="6.00" shape="-105.55,95.77 -111.52,95.20"/>
    </edge>
    <edge id=":J9_12" function="internal">
        <lane id=":J9_12_0" index="0" speed="9.79" length="16.63" shape="-110.73,95.18 -112.03,95.03 -116.67,92.76 -119.45,88.94 -120.37,83.59"/>
    </edge>
    <edge id=":J9_13" function="internal">
        <lane id=":J9_13_0" index="0" speed="7.55" length="15.12" shape="-111.52,95.20 -112.48,95.11 -115.43,93.05 -114.42,89.59 -109.43,84.74"/>
    </edge>
    <edge id=":J9_3" function="internal">
        <lane id=":J9_3_0" index="0" speed="5.46" length="10.20" shape="-107.44,87.24 -109.85,89.59 -110.34,91.26 -108.91,92.25 -105.56,92.57"/>
    </edge>
    <edge id=":J9_4" function="internal">
        <lane id=":J9_4_0" index="0" speed="13.89" length="20.52" shape="-107.44,87.24 -111.24,89.92 -116.16,92.80 -121.28,95.14 -125.69,96.23"/>
    </edge>
    <edge id=":J9_5" function="internal">
        <lane id=":J9_5_0" index="0" speed="7.70" length="19.77" shape="-107.44,87.24 -113.10,90.88 -117.14,91.48 -119.57,89.05 -120.37,83.59"/>
    </edge>
    <edge id=":J9_6" function="internal">
        <lane id=":J9_6_0" index="0" speed="5.97" length="11.24" shape="-117.17,83.59 -116.69,86.40 -115.24,87.54 -112.82,86.98 -109.43,84.74"/>
    </edge>
    <edge id=":J9_7" function="internal">
        <lane id=":J9_7_0" index="0" speed="8.62" length="16.68" shape="-117.17,83.59 -116.45,87.54 -114.27,90.35 -110.64,92.03 -105.56,92.57"/>
    </edge>
    <edge id=":J9_8" function="internal">
        <lane id=":J9_8_0" index="0" speed="8.90" length="17.03" shape="-117.17,83.59 -117.71,88.93 -119.30,92.82 -121.96,95.26 -125.69,96.23"/>
    </edge>
    <edge id=":J9_9" function="internal">
        <lane id=":J9_9_0" index="0" speed="7.60" length="12.13" shape="-125.87,93.04 -123.47,92.33 -121.75,90.51 -120.72,87.60 -120.37,83.59"/>
    </edge>
    <edge id=":J9_10" function="internal">
        <lane id=":J9_10_0" index="0" speed="13.89" length="18.61" shape="-125.87,93.04 -121.75,92.06 -117.25,89.95 -112.95,87.31 -109.43,84.74"/>
    </edge>
    <edge id=":J9_11" function="internal">
        <lane id=":J9_11_0" index="0" speed="13.89" length="20.32" shape="-125.87,93.04 -105.56,92.57"/>
    </edge>

    <edge id="-E16" from="J10" to="J9" priority="-1">
        <lane id="-E16_0" index="0" speed="13.89" length="31.25" shape="-117.17,52.34 -117.17,83.59"/>
    </edge>
    <edge id="-E17" from="J9" to="J11" priority="-1">
        <lane id="-E17_0" index="0" speed="13.89" length="10.13" shape="-125.69,96.23 -135.80,96.82"/>
    </edge>
    <edge id="-E18" from="J10" to="J12" priority="-1">
        <lane id="-E18_0" index="0" speed="13.89" length="10.57" shape="-125.90,42.18 -136.46,41.73"/>
    </edge>
    <edge id="-E19" from="J13" to="J9" priority="-1">
        <lane id="-E19_0" index="0" speed="13.89" length="37.95" shape="-67.60,95.59 -105.55,95.77"/>
    </edge>
    <edge id="-E20" from="J14" to="J10" priority="-1">
        <lane id="-E20_0" index="0" speed="13.89" length="36.58" shape="-70.37,41.60 -106.95,42.26"/>
    </edge>
    <edge id="-E21" from="J15" to="J10" priority="-1">
        <lane id="-E21_0" index="0" speed="13.89" length="22.65" shape="-94.91,65.78 -111.33,50.17"/>
    </edge>
    <edge id="-E22" from="J9" to="J15" priority="-1">
        <lane id="-E22_0" index="0" speed="13.89" length="18.13" shape="-109.43,84.74 -95.25,73.44"/>
    </edge>
    <edge id="-E23" from="J16" to="J15" priority="-1">
        <lane id="-E23_0" index="0" speed="13.89" length="18.36" shape="-64.51,70.79 -82.87,71.35"/>
    </edge>
    <edge id="-E24" from="J16" to="J14" priority="-1">
        <lane id="-E24_0" index="0" speed="13.89" length="13.92" shape="-59.48,61.56 -63.26,48.16"/>
    </edge>
    <edge id="-E25" from="J13" to="J16" priority="-1">
        <lane id="-E25_0" index="0" speed="13.89" length="15.86" shape="-66.13,91.37 -60.41,76.57"/>
    </edge>
    <edge id="-E26" from="J17" to="J16" priority="-1">
        <lane id="-E26_0" index="0" speed="13.89" length="47.35" shape="-2.08,71.75 -49.42,70.66"/>
    </edge>
    <edge id="-E29" from="J19" to="J17" priority="-1">
        <lane id="-E29_0" index="0" speed="13.89" length="32.91" shape="31.14,72.16 -1.77,71.76"/>
    </edge>
    <edge id="-E30" from="J20" to="J19" priority="-1">
        <lane id="-E30_0" index="0" speed="13.89" length="17.83" shape="39.00,45.39 39.81,63.20"/>
    </edge>
    <edge id="-E31" from="J14" to="J20" priority="-1">
        <lane id="-E31_0" index="0" speed="13.89" length="85.75" shape="-55.81,38.14 29.93,36.67"/>
    </edge>
    <edge id="-E32" from="J21" to="J20" priority="-1">
        <lane id="-E32_0" index="0" speed="13.89" length="17.69" shape="62.09,39.55 44.40,39.69"/>
    </edge>
    <edge id="-E33" from="J22" to="J21" priority="-1">
        <lane id="-E33_0" index="0" speed="13.89" length="18.99" shape="67.53,64.12 67.67,45.13"/>
    </edge>
    <edge id="-E34" from="J22" to="J19" priority="-1">
        <lane id="-E34_0" index="0" speed="13.89" length="16.29" shape="61.78,72.82 45.49,72.42"/>
    </edge>
    <edge id="-E35" from="J23" to="J22" priority="-1">
        <lane id="-E35_0" index="0" speed="13.89" length="31.20" shape="107.56,72.50 76.36,72.90"/>
    </edge>
    <edge id="-E36" from="J24" to="J21" priority="-1">
        <lane id="-E36_0" index="0" speed="13.89" length="36.75" shape="113.25,39.50 76.50,39.50"/>
    </edge>
    <edge id="E16" from="J9" to="J10" priority="-1">
        <lane id="E16_0" index="0" speed="13.89" length="31.25" shape="-120.37,83.59 -120.37,52.34"/>
    </edge>
    <edge id="E17" from="J11" to="J9" priority="-1">
        <lane id="E17_0" index="0" speed="13.89" length="10.13" shape="-135.99,93.62 -125.87,93.04"/>
    </edge>
    <edge id="E18" from="J12" to="J10" priority="-1">
        <lane id="E18_0" index="0" speed="13.89" length="10.57" shape="-136.33,38.53 -125.77,38.98"/>
    </edge>
    <edge id="E19" from="J9" to="J13" priority="-1">
        <lane id="E19_0" index="0" speed="13.89" length="37.95" shape="-105.56,92.57 -67.61,92.39"/>
    </edge>
    <edge id="E20" from="J10" to="J14" priority="-1">
        <lane id="E20_0" index="0" speed="13.89" length="36.58" shape="-107.00,39.06 -70.43,38.40"/>
    </edge>
    <edge id="E21" from="J10" to="J15" priority="-1">
        <lane id="E21_0" index="0" speed="13.89" length="22.65" shape="-109.12,47.85 -92.71,63.46"/>
    </edge>
    <edge id="E22" from="J15" to="J9" priority="-1">
        <lane id="E22_0" index="0" speed="13.89" length="18.13" shape="-93.26,75.94 -107.44,87.24"/>
    </edge>
    <edge id="E23" from="J15" to="J16" priority="-1">
        <lane id="E23_0" index="0" speed="13.89" length="18.36" shape="-82.97,68.15 -64.61,67.59"/>
    </edge>
    <edge id="E24" from="J14" to="J16" priority="-1">
        <lane id="E24_0" index="0" speed="13.89" length="13.92" shape="-60.18,47.30 -56.40,60.69"/>
    </edge>
    <edge id="E25" from="J16" to="J13" priority="-1">
        <lane id="E25_0" index="0" speed="13.89" length="15.86" shape="-57.43,77.72 -63.14,92.52"/>
    </edge>
    <edge id="E26" from="J16" to="J17" priority="-1">
        <lane id="E26_0" index="0" speed="13.89" length="47.35" shape="-49.34,67.46 -2.01,68.55"/>
    </edge>
    <edge id="E29" from="J17" to="J19" priority="-1">
        <lane id="E29_0" index="0" speed="13.89" length="32.91" shape="-1.73,68.56 31.18,68.96"/>
    </edge>
    <edge id="E30" from="J19" to="J20" priority="-1">
        <lane id="E30_0" index="0" speed="13.89" length="17.83" shape="36.62,63.34 35.80,45.54"/>
    </edge>
    <edge id="E31" from="J20" to="J14" priority="-1">
        <lane id="E31_0" index="0" speed="13.89" length="85.75" shape="29.98,39.87 -55.75,41.34"/>
    </edge>
    <edge id="E32" from="J20" to="J21" priority="-1">
        <lane id="E32_0" index="0" speed="13.89" length="17.69" shape="44.38,36.49 62.06,36.35"/>
    </edge>
    <edge id="E33" from="J21" to="J22" priority="-1">
        <lane id="E33_0" index="0" speed="13.89" length="18.99" shape="70.87,45.16 70.73,64.14"/>
    </edge>
    <edge id="E34" from="J19" to="J22" priority="-1">
        <lane id="E34_0" index="0" speed="13.89" length="16.29" shape="45.57,69.22 61.86,69.62"/>
    </edge>
    <edge id="E35" from="J22" to="J23" priority="-1">
        <lane id="E35_0" index="0" speed="13.89" length="31.20" shape="76.32,69.70 107.52,69.30"/>
    </edge>
    <edge id="E36" from="J21" to="J24" priority="-1">
        <lane id="E36_0" index="0" speed="13.89" length="36.75" shape="76.50,36.30 113.25,36.30"/>
    </edge>

    <tlLogic id="J10" type="static" programID="0" offset="0">
        <phase duration="18" state="GrrrrrrrrGGG"/>
        <phase duration="3"  state="yrrrrrrrryyy"/>
        <phase duration="20" state="GGGGrrrrrrrr"/>
        <phase duration="3"  state="yyyyrrrrrrrr"/>
        <phase duration="20" state="rrrrrrGGGGrr"/>
        <phase duration="3"  state="rrrrrryyyyrr"/>
        <phase duration="20" state="rrrGGGGrrrrr"/>
        <phase duration="3"  state="rrryyyyrrrrr"/>
    </tlLogic>
    <tlLogic id="J13" type="static" programID="0" offset="0">
        <phase duration="42" state="GG"/>
        <phase duration="3"  state="yy"/>
        <phase duration="42" state="GG"/>
        <phase duration="3"  state="yy"/>
    </tlLogic>
    <tlLogic id="J14" type="static" programID="0" offset="0">
        <phase duration="42" state="rrGGGg"/>
        <phase duration="3"  state="rryyyy"/>
        <phase duration="42" state="GGGrrr"/>
        <phase duration="3"  state="yyyrrr"/>
    </tlLogic>
    <tlLogic id="J15" type="static" programID="0" offset="0">
        <phase duration="42" state="GgrrGG"/>
        <phase duration="3"  state="yyrryy"/>
        <phase duration="42" state="rrGGGr"/>
        <phase duration="3"  state="rryyyr"/>
    </tlLogic>
    <tlLogic id="J16" type="static" programID="0" offset="0">
        <phase duration="42" state="GGgrrrGGgrrr"/>
        <phase duration="3"  state="yyyrrryyyrrr"/>
        <phase duration="42" state="rrrGGgrrrGGg"/>
        <phase duration="3"  state="rrryyyrrryyy"/>
    </tlLogic>
    <tlLogic id="J19" type="static" programID="0" offset="0">
        <phase duration="42" state="GgrrGG"/>
        <phase duration="3"  state="yyrryy"/>
        <phase duration="42" state="rrGGGr"/>
        <phase duration="3"  state="rryyyr"/>
    </tlLogic>
    <tlLogic id="J20" type="static" programID="0" offset="0">
        <phase duration="42" state="rrGGGg"/>
        <phase duration="3"  state="rryyyy"/>
        <phase duration="42" state="GGGrrr"/>
        <phase duration="3"  state="yyyrrr"/>
    </tlLogic>
    <tlLogic id="J21" type="static" programID="0" offset="0">
        <phase duration="42" state="GGGgrr"/>
        <phase duration="3"  state="yyyyrr"/>
        <phase duration="42" state="GrrrGG"/>
        <phase duration="3"  state="yrrryy"/>
    </tlLogic>
    <tlLogic id="J22" type="static" programID="0" offset="0">
        <phase duration="42" state="GgrrGG"/>
        <phase duration="3"  state="yyrryy"/>
        <phase duration="42" state="rrGGGr"/>
        <phase duration="3"  state="rryyyr"/>
    </tlLogic>
    <tlLogic id="J9" type="static" programID="0" offset="0">
        <phase duration="27" state="GggrrrrrrGGG"/>
        <phase duration="3"  state="yyyrrrrrryyy"/>
        <phase duration="27" state="rrrGGGGrrrrr"/>
        <phase duration="3"  state="rrryyyyrrrrr"/>
        <phase duration="27" state="rrrrrrGGGGrr"/>
        <phase duration="3"  state="rrrrrryyyyrr"/>
    </tlLogic>

    <junction id="J10" type="traffic_light" x="-118.77" y="40.88" incLanes="E16_0 -E21_0 -E20_0 E18_0" intLanes=":J10_0_0 :J10_1_0 :J10_2_0 :J10_3_0 :J10_4_0 :J10_5_0 :J10_6_0 :J10_7_0 :J10_8_0 :J10_9_0 :J10_10_0 :J10_11_0" shape="-121.97,52.34 -115.57,52.34 -115.22,50.45 -114.79,50.08 -114.18,50.11 -113.39,50.52 -112.43,51.33 -108.02,46.69 -109.18,45.15 -109.19,44.61 -108.82,44.21 -108.06,43.96 -106.92,43.86 -107.03,37.46 -125.70,37.38 -125.97,43.77 -123.75,44.80 -122.97,46.00 -122.42,47.65 -122.09,49.77">
        <request index="0"  response="000100010000" foes="000100010000" cont="0"/>
        <request index="1"  response="111100010000" foes="111100110000" cont="0"/>
        <request index="2"  response="110011010000" foes="110011110000" cont="0"/>
        <request index="3"  response="100010000000" foes="100010000000" cont="0"/>
        <request index="4"  response="100110000000" foes="100110000111" cont="0"/>
        <request index="5"  response="011110000110" foes="011110000110" cont="0"/>
        <request index="6"  response="000000000000" foes="010000000100" cont="0"/>
        <request index="7"  response="000000000000" foes="110000111100" cont="0"/>
        <request index="8"  response="000000000000" foes="110000110011" cont="0"/>
        <request index="9"  response="000000000000" foes="000000100010" cont="0"/>
        <request index="10" response="000111000000" foes="000111100110" cont="0"/>
        <request index="11" response="000110000000" foes="000110011110" cont="0"/>
    </junction>
    <junction id="J11" type="dead_end" x="-135.90" y="95.22" incLanes="-E17_0" intLanes="" shape="-135.90,95.22 -135.71,98.42 -135.90,95.22"/>
    <junction id="J12" type="dead_end" x="-136.39" y="40.13" incLanes="-E18_0" intLanes="" shape="-136.39,40.13 -136.53,43.33 -136.39,40.13"/>
    <junction id="J13" type="traffic_light" x="-65.42" y="93.98" incLanes="E25_0 E19_0" intLanes=":J13_0_0 :J13_1_0" shape="-61.65,93.10 -67.62,90.79 -67.59,97.19 -64.99,96.73 -63.92,96.16 -63.01,95.36 -62.25,94.34">
        <request index="0" response="00" foes="00" cont="0"/>
        <request index="1" response="00" foes="00" cont="0"/>
    </junction>
    <junction id="J14" type="traffic_light" x="-63.93" y="39.88" incLanes="-E24_0 E31_0 E20_0" intLanes=":J14_0_0 :J14_1_0 :J14_2_0 :J14_3_0 :J14_4_0 :J14_6_0" shape="-64.80,48.60 -58.64,46.86 -58.80,44.71 -58.45,43.96 -57.83,43.41 -56.92,43.07 -55.73,42.94 -55.84,36.54 -70.46,36.80 -70.34,43.20 -67.95,43.77 -66.96,44.51 -66.10,45.57 -65.38,46.93">
        <request index="0" response="001000" foes="001000" cont="0"/>
        <request index="1" response="111000" foes="111000" cont="0"/>
        <request index="2" response="000000" foes="100000" cont="0"/>
        <request index="3" response="000000" foes="100011" cont="0"/>
        <request index="4" response="000000" foes="000010" cont="0"/>
        <request index="5" response="001100" foes="001110" cont="1"/>
    </junction>