<?xml version="1.0" encoding="UTF-8"?>

<!-- generated on 2022-04-14 10:01:27 by Eclipse SUMO polyconvert Version 1.12.0
<configuration xmlns:xsi="http://www.w3.org/2001/XMLSchema-instance" xsi:noNamespaceSchemaLocation="http://sumo.dlr.de/xsd/polyconvertConfiguration.xsd">

    <input>
        <net-file value="osm.net.xml"/>
        <osm-files value="osm_bbox.osm.xml"/>
        <osm.keep-full-type value="true"/>
        <type-file value="/usr/share/sumo/data/typemap/osmPolyconvert.typ.xml"/>
    </input>

    <output>
        <output-file value="osm.poly.xml"/>
    </output>

    <processing>
        <poi-layer-offset value="5"/>
    </processing>

    <report>
        <verbose value="true"/>
    </report>

</configuration>
-->

<additional xmlns:xsi="http://www.w3.org/2001/XMLSchema-instance" xsi:noNamespaceSchemaLocation="http://sumo.dlr.de/xsd/additional_file.xsd">
    <location netOffset="-428330.91,-4581134.24" convBoundary="-664.52,-409.09,3048.05,2995.10" origBoundary="2.134605,41.375034,2.179077,41.405455" projParameter="+proj=utm +zone=31 +ellps=WGS84 +datum=WGS84 +units=m +no_defs"/>

    <poly id="1012518461" type="landuse.allotments" color="194,194,130" fill="1" layer="-3.00" shape="260.296336,800.603889 271.764567,811.205198 294.229527,787.101457 282.769654,776.500030 260.296336,800.603889"/>
    <poly id="123194517" type="building.yes" color="255,230,230" fill="1" layer="-1.00" shape="1315.317158,714.427736 1322.755976,714.089040 1322.752743,701.698243 1296.428951,701.654085 1296.555862,714.720959 1303.483681,714.287280 1303.446592,710.468245 1306.875758,707.104075 1311.946118,706.555209 1315.197495,709.854506 1315.317158,714.427736"/>
    <poly id="123194519" type="building.church" color="255,230,230" fill="1" layer="-1.00" shape="1303.786428,745.461266 1303.813699,740.520214 1303.483681,714.287280 1303.446592,710.468245 1306.875758,707.104075 1311.946118,706.555209 1315.197495,709.854506 1315.317158,714.427736 1316.056120,741.445003 1316.158474,745.096861 1303.786428,745.461266"/>
    <poly id="123194552" type="amenity.school" color="237,199,199" fill="1" layer="-2.00" shape="1288.667802,717.018154 1287.487020,684.986672 1278.078231,684.822705 1275.463512,682.505396 1275.548267,678.318782 1278.123513,676.572815 1338.986820,675.360028 1341.726938,677.676142 1342.385103,681.733412 1339.934120,684.222044 1330.285337,684.315705 1329.864258,716.740239 1322.811024,717.175110 1322.755976,714.089040 1322.752743,701.698243 1322.246702,684.027351 1296.261390,684.401816 1296.428951,701.654085 1296.555862,714.720959 1296.579800,717.185569 1288.667802,717.018154"/>
    <poly id="123194552#1" type="building.school" color="255,230,230" fill="1" layer="-1.00" shape="1288.667802,717.018154 1287.487020,684.986672 1278.078231,684.822705 1275.463512,682.505396 1275.548267,678.318782 1278.123513,676.572815 1338.986820,675.360028 1341.726938,677.676142 1342.385103,681.733412 1339.934120,684.222044 1330.285337,684.315705 1329.864258,716.740239 1322.811024,717.175110 1322.755976,714.089040 1322.752743,701.698243 1322.246702,684.027351 1296.261390,684.401816 1296.428951,701.654085 1296.555862,714.720959 1296.579800,717.185569 1288.667802,717.018154"/>
    <poly id="123194561" type="building.church" color="255,230,230" fill="1" layer="-1.00" shape="1260.654629,566.346474 1258.652396,564.245277 1239.317486,583.852145 1240.008399,584.389472 1238.850229,585.677562 1237.410686,585.547217 1228.941064,594.267600 1228.680678,594.147999 1227.372656,595.504165 1224.334400,598.653616 1223.736325,598.204212 1222.063482,599.019884 1220.120597,599.582816 1217.689952,599.861815 1215.288327,599.685314 1213.048205,598.918791 1211.400653,598.035477 1209.698615,596.708577 1208.395434,595.122432 1207.339204,593.134182 1206.530622,589.955515 1206.363973,587.436778 1206.930634,584.655544 1208.788652,581.384328 1210.212867,579.938205 1209.291015,578.870189 1220.255298,565.273563 1221.881766,566.567891 1241.140347,546.850690 1238.919629,544.640594 1243.051036,540.392442 1245.237121,542.480745 1245.678329,542.276604 1258.573160,555.230499 1258.806090,555.106103 1263.195396,559.326964 1262.848428,559.763348 1265.001704,561.918593 1260.654629,566.346474"/>
    <poly id="123194624" type="building.detached" color="255,230,230" fill="1" layer="-1.00" shape="1321.693658,747.641195 1316.056120,741.445003 1323.590132,733.688651 1329.158840,739.685664 1321.693658,747.641195"/>
    <poly id="123194641" type="building.apartments" color="255,230,230" fill="1" layer="-1.00" shape="1545.199046,761.551588 1538.923695,773.237047 1524.229690,757.457748 1533.135314,748.844520 1545.199046,761.551588"/>
    <poly id="123194683" type="building.apartments" color="255,230,230" fill="1" layer="-1.00" shape="1289.612242,654.988216 1279.338998,663.970325 1262.445964,644.848728 1271.644608,636.287844 1289.612242,654.988216"/>
    <poly id="123194717" type="building.apartments" color="255,230,230" fill="1" layer="-1.00" shape="880.151053,484.716877 872.517317,494.228925 859.037037,480.493116 868.233588,471.742987 880.151053,484.716877"/>
    <poly id="123194730" type="building.apartments" color="255,230,230" fill="1" layer="-1.00" shape="1143.807258,590.865518 1167.820082,590.554116 1164.819399,594.125137 1151.162723,607.725847 1143.869767,600.724282 1143.807258,590.865518"/>
    <poly id="123194749" type="building.apartments" color="255,230,230" fill="1" layer="-1.00" shape="1447.479747,618.915450 1430.667397,603.767522 1446.609448,589.512337 1461.067228,604.161280 1447.479747,618.915450"/>
    <poly id="123194794" type="building.apartments" color="255,230,230" fill="1" layer="-1.00" shape="1335.873019,601.811393 1350.842680,586.466246 1354.008109,589.522131 1339.030086,604.867352 1335.873019,601.811393"/>
    <poly id="123194798" type="building.apartments" color="255,230,230" fill="1" layer="-1.00" shape="791.846203,524.040555 777.642273,503.017362 786.550393,493.859140 792.223978,499.399508 801.456994,514.053863 791.846203,524.040555"/>
    <poly id="123194866" type="building.apartments" color="255,230,230" fill="1" layer="-1.00" shape="1330.604762,784.405186 1345.341637,769.239921 1355.049733,778.716395 1340.940475,793.931063 1330.604762,784.405186"/>
    <poly id="123194884" type="building.apartments" color="255,230,230" fill="1" layer="-1.00" shape="1147.464370,497.510083 1151.550390,501.489565 1151.955517,501.874224 1153.475042,503.347224 1154.471300,504.325687 1155.231170,505.073289 1157.020958,506.821233 1158.430703,508.184274 1159.021724,508.766976 1160.938119,510.635820 1162.972653,512.614544 1165.994755,515.538509 1170.779340,510.528964 1175.872654,505.449800 1169.828792,501.356118 1169.075792,502.173955 1168.149471,503.226640 1166.232752,501.324488 1167.673913,499.900399 1166.815328,499.320299 1161.874250,495.981993 1159.189036,494.165041 1158.599850,493.771070 1157.833671,493.234484 1154.037405,490.673349 1149.339984,487.454812 1144.381736,484.072273 1139.148553,489.385980 1146.831216,496.894483 1147.464370,497.510083"/>
    <poly id="123194921" type="building.apartments" color="255,230,230" fill="1" layer="-1.00" shape="1065.704566,487.780713 1067.850156,485.705772 1065.638917,483.617766 1064.423409,482.452703 1059.392739,477.649756 1058.084389,476.396775 1056.081592,478.536945 1053.153677,475.845268 1049.363103,479.879252 1045.197893,484.083434 1059.088844,497.093891 1067.164176,489.109942 1065.704566,487.780713"/>
    <poly id="123194933" type="building.apartments" color="255,230,230" fill="1" layer="-1.00" shape="820.305297,563.654983 789.015346,591.118709 770.199691,573.926737 801.846800,543.650402 820.305297,563.654983"/>
    <poly id="123194937" type="building.apartments" color="255,230,230" fill="1" layer="-1.00" shape="1349.936933,576.715596 1350.842680,586.466246 1334.413807,571.225991 1342.640716,563.329705 1349.936933,576.715596"/>
    <poly id="123194968" type="building.apartments" color="255,230,230" fill="1" layer="-1.00" shape="1371.675229,665.172343 1355.633992,685.546357 1325.406713,658.104727 1342.196581,635.602728 1371.675229,665.172343"/>
    <poly id="123194984" type="building.apartments" color="255,230,230" fill="1" layer="-1.00" shape="1445.544545,663.412372 1443.786404,676.997141 1430.315920,663.260202 1440.242481,654.725788 1445.544545,663.412372"/>
    <poly id="123195035" type="building.apartments" color="255,230,230" fill="1" layer="-1.00" shape="1447.037931,809.733979 1445.458711,808.128263 1431.237446,793.688016 1454.768092,775.617602 1468.408178,787.898461 1447.037931,809.733979"/>
    <poly id="123195045" type="building.apartments" color="255,230,230" fill="1" layer="-1.00" shape="976.515569,525.711769 956.446057,505.966784 965.000507,496.534666 985.549002,516.519266 976.515569,525.711769"/>
    <poly id="123195139" type="building.apartments" color="255,230,230" fill="1" layer="-1.00" shape="1480.477443,651.837775 1470.203857,660.808508 1453.319797,641.697493 1462.510305,633.136935 1477.461629,648.680461 1480.477443,651.837775"/>
    <poly id="123195171" type="building.apartments" color="255,230,230" fill="1" layer="-1.00" shape="1344.533091,531.712515 1324.167230,511.480883 1340.625084,494.367018 1347.968764,501.434903 1355.021015,493.983046 1368.402627,507.132261 1344.533091,531.712515"/>
    <poly id="123195207" type="building.apartments" color="255,230,230" fill="1" layer="-1.00" shape="1530.727466,672.002549 1506.980801,692.861619 1496.832773,683.711188 1518.593218,662.393891 1530.727466,672.002549"/>
    <poly id="123195216" type="building.apartments" color="255,230,230" fill="1" layer="-1.00" shape="1459.373922,564.895677 1434.226254,582.715259 1410.803637,561.968979 1407.176843,558.762103 1430.018190,535.069151 1433.041571,538.137550 1435.490676,540.623063 1445.439305,550.741296 1455.565108,561.024367 1459.373922,564.895677"/>
    <poly id="123195217" type="building.apartments" color="255,230,230" fill="1" layer="-1.00" shape="1258.418407,484.229010 1254.200000,488.133807 1243.902642,478.307895 1247.975561,474.060316 1258.418407,484.229010"/>
    <poly id="123195228" type="building.apartments" color="255,230,230" fill="1" layer="-1.00" shape="1241.921135,509.315325 1254.665752,496.478656 1257.804294,493.317142 1261.890362,497.307788 1246.066811,513.416412 1241.921135,509.315325"/>
    <poly id="123195235" type="building.school" color="255,230,230" fill="1" layer="-1.00" shape="1294.424466,749.249455 1303.813699,740.520214 1298.111409,734.546722 1288.421067,743.267793 1294.424466,749.249455"/>
    <poly id="123195238" type="building.apartments" color="255,230,230" fill="1" layer="-1.00" shape="883.578762,630.153655 855.885382,657.704094 827.708088,642.579794 863.451300,608.755158 883.578762,630.153655"/>
    <poly id="123195307" type="building.apartments" color="255,230,230" fill="1" layer="-1.00" shape="908.236253,469.808935 897.963200,478.791584 881.068724,459.670864 890.267171,451.109495 908.236253,469.808935"/>
    <poly id="123195408" type="building.apartments" color="255,230,230" fill="1" layer="-1.00" shape="1415.815450,758.041815 1390.689438,782.323244 1380.255519,771.288256 1405.033455,746.466125 1415.815450,758.041815"/>
    <poly id="123195432" type="building.apartments" color="255,230,230" fill="1" layer="-1.00" shape="1281.409701,473.413482 1277.336979,477.683246 1260.505444,461.492216 1264.703265,457.187918 1281.409701,473.413482"/>
    <poly id="123195484" type="building.apartments" color="255,230,230" fill="1" layer="-1.00" shape="1508.376792,661.726711 1483.250025,685.996706 1472.824585,674.972608 1497.594810,650.150886 1508.376792,661.726711"/>
    <poly id="123195540" type="building.apartments" color="255,230,230" fill="1" layer="-1.00" shape="1192.141284,562.626896 1181.466590,573.322892 1165.978975,558.606793 1176.391552,547.613546 1192.141284,562.626896"/>
    <poly id="123195583" type="building.apartments" color="255,230,230" fill="1" layer="-1.00" shape="1429.049133,692.162199 1443.786404,676.997141 1447.610012,682.400499 1433.500369,697.614980 1429.049133,692.162199"/>
    <poly id="123195605" type="building.apartments" color="255,230,230" fill="1" layer="-1.00" shape="1389.118534,558.293264 1380.836272,566.523120 1379.420374,565.382155 1371.381793,573.731790 1352.332362,552.987681 1367.736736,537.616149 1389.118534,558.293264"/>
    <poly id="123195627" type="building.apartments" color="255,230,230" fill="1" layer="-1.00" shape="1354.069052,713.851711 1342.072157,702.043639 1358.013816,687.788253 1368.558238,699.854707 1354.069052,713.851711"/>
    <poly id="123195664" type="building.apartments" color="255,230,230" fill="1" layer="-1.00" shape="1520.960093,782.493105 1538.923695,773.237047 1545.405206,776.804959 1531.295552,792.019251 1520.960093,782.493105"/>
    <poly id="123195694" type="building.apartments" color="255,230,230" fill="1" layer="-1.00" shape="991.693442,479.475569 979.040141,492.200790 954.150140,462.643463 964.300720,452.240919 991.693442,479.475569"/>
    <poly id="123195702" type="building.apartments" color="255,230,230" fill="1" layer="-1.00" shape="1261.527020,669.894684 1253.892996,679.406329 1240.422148,665.669739 1249.610545,656.920175 1261.527020,669.894684"/>
    <poly id="123195738" type="building.apartments" color="255,230,230" fill="1" layer="-1.00" shape="1381.060729,744.822254 1370.787506,753.804234 1358.260188,737.304759 1367.458823,728.743995 1381.060729,744.822254"/>
    <poly id="123195757" type="building.apartments" color="255,230,230" fill="1" layer="-1.00" shape="857.772471,509.395232 872.517317,494.228925 882.226402,503.704774 868.117671,518.931464 857.772471,509.395232"/>
    <poly id="123195789" type="building.apartments" color="255,230,230" fill="1" layer="-1.00" shape="1542.892469,710.711591 1526.080530,695.563445 1542.022450,681.297366 1557.373549,696.703948 1542.892469,710.711591"/>
    <poly id="123195793" type="building.apartments" color="255,230,230" fill="1" layer="-1.00" shape="1352.984043,759.728289 1345.341637,769.239921 1336.178540,760.779635 1345.464844,750.918951 1352.984043,759.728289"/>
    <poly id="123195802" type="building.apartments" color="255,230,230" fill="1" layer="-1.00" shape="1438.184383,776.255755 1426.982477,789.499064 1418.268200,780.745650 1409.182247,771.607250 1421.434882,758.931076 1438.184383,776.255755"/>
    <poly id="123195846" type="building.apartments" color="255,230,230" fill="1" layer="-1.00" shape="1430.018190,535.069151 1407.176843,558.762103 1397.776823,549.171540 1402.181335,544.621055 1420.095497,525.905536 1423.495792,529.036894 1430.018190,535.069151"/>
    <poly id="123195848" type="building.apartments" color="255,230,230" fill="1" layer="-1.00" shape="1237.488146,504.906152 1237.203228,485.056951 1239.903146,482.366014 1254.665752,496.478656 1241.921135,509.315325 1237.488146,504.906152"/>
    <poly id="123195856" type="building.apartments" color="255,230,230" fill="1" layer="-1.00" shape="1506.980801,692.861619 1487.140318,713.827270 1486.009846,710.207576 1478.781924,702.105866 1496.832773,683.711188 1506.980801,692.861619"/>
    <poly id="123195927" type="building.apartments" color="255,230,230" fill="1" layer="-1.00" shape="955.093394,504.458887 956.446057,505.966784 976.515569,525.711769 955.493899,547.212255 946.941274,555.967092 926.972421,536.254514 955.093394,504.458887"/>
    <poly id="123195939" type="building.apartments" color="255,230,230" fill="1" layer="-1.00" shape="1373.447963,638.452693 1390.600768,623.175271 1390.604741,618.412094 1376.378854,606.991979 1363.809037,628.364863 1373.447963,638.452693"/>
    <poly id="123195968" type="building.apartments" color="255,230,230" fill="1" layer="-1.00" shape="702.071905,538.742364 690.739423,528.316700 709.088240,508.906747 714.285055,504.181532 724.522083,513.751931 721.719428,517.032524 702.071905,538.742364"/>
    <poly id="123195969" type="building.apartments" color="255,230,230" fill="1" layer="-1.00" shape="1477.032392,617.318965 1486.618988,628.062520 1490.277571,631.968609 1482.678402,639.070341 1469.507639,625.197192 1477.032392,617.318965"/>
    <poly id="123196015" type="building.apartments" color="255,230,230" fill="1" layer="-1.00" shape="1314.600862,561.425737 1296.769539,561.943082 1295.030446,561.105049 1293.586646,559.675696 1291.442063,557.553667 1306.199291,542.721226 1320.590299,556.482313 1318.577579,558.467066 1316.821689,560.205062 1314.600862,561.425737"/>
    <poly id="123196037" type="building.apartments" color="255,230,230" fill="1" layer="-1.00" shape="1384.701390,712.399803 1394.049231,724.389078 1397.716179,728.295039 1390.108734,735.385851 1377.032720,719.213651 1384.701390,712.399803"/>
    <poly id="123196081" type="building.office" color="255,230,230" fill="1" layer="-1.00" shape="1249.492187,704.108629 1282.853139,736.493600 1287.867881,731.082189 1287.650822,716.483991 1262.335234,690.249539 1249.492187,704.108629"/>
    <poly id="123196113" type="building.apartments" color="255,230,230" fill="1" layer="-1.00" shape="777.642273,503.017362 791.846203,524.040555 783.210347,532.818609 768.576940,512.343677 777.642273,503.017362"/>
    <poly id="123196116" type="building.apartments" color="255,230,230" fill="1" layer="-1.00" shape="1377.408330,768.273685 1363.190998,784.421999 1375.527054,797.592470 1390.689438,782.323244 1380.255519,771.288256 1377.408330,768.273685"/>
    <poly id="123196208" type="building.apartments" color="255,230,230" fill="1" layer="-1.00" shape="657.855384,498.039264 670.397126,484.226477 690.247572,502.007619 677.200241,516.280544 657.855384,498.039264"/>
    <poly id="123196265" type="building.apartments" color="255,230,230" fill="1" layer="-1.00" shape="1342.196581,635.602728 1325.406713,658.104727 1310.037971,644.386435 1314.171713,636.074642 1327.184602,622.458288 1329.301485,624.314126 1342.196581,635.602728"/>
    <poly id="123196492" type="building.apartments" color="255,230,230" fill="1" layer="-1.00" shape="1411.619773,655.625030 1391.462438,655.975952 1373.447963,638.452693 1390.600768,623.175271 1418.583546,649.406510 1411.619773,655.625030"/>
    <poly id="123196542" type="building.apartments" color="255,230,230" fill="1" layer="-1.00" shape="1412.414062,845.332420 1393.269649,844.885222 1381.080942,833.101155 1406.897047,811.022469 1426.362925,830.818929 1412.414062,845.332420"/>
    <poly id="123196628" type="building.apartments" color="255,230,230" fill="1" layer="-1.00" shape="1197.232612,526.393045 1211.687683,540.697340 1214.236553,543.115192 1217.190543,545.917708 1196.289011,566.938889 1192.141284,562.626896 1176.391552,547.613546 1197.232612,526.393045"/>
    <poly id="123196694" type="building.apartments" color="255,230,230" fill="1" layer="-1.00" shape="883.608329,502.214588 891.300467,510.666480 876.119406,526.547596 868.117671,518.931464 882.226402,503.704774 883.608329,502.214588"/>
    <poly id="123196705" type="building.apartments" color="255,230,230" fill="1" layer="-1.00" shape="1239.156119,694.571778 1253.892996,679.406329 1263.601331,688.882683 1262.335234,690.249539 1249.492187,704.108629 1239.156119,694.571778"/>
    <poly id="123196733" type="building.apartments" color="255,230,230" fill="1" layer="-1.00" shape="906.565773,556.494513 926.972421,536.254514 920.629397,531.508886 906.402582,520.089685 889.188900,539.332599 906.565773,556.494513"/>
    <poly id="123196773" type="building.apartments" color="255,230,230" fill="1" layer="-1.00" shape="1444.153865,735.616833 1421.434882,758.931076 1438.184383,776.255755 1446.944840,767.344046 1461.136075,752.794971 1444.153865,735.616833"/>
    <poly id="123196788" type="building.apartments" color="255,230,230" fill="1" layer="-1.00" shape="1112.878434,547.321276 1111.985464,548.362541 1102.078123,559.706255 1102.643737,560.255891 1122.434309,559.996566 1125.108316,557.228116 1127.683718,554.638275 1120.853694,547.954208 1119.359580,546.514276 1119.165216,546.305213 1117.246034,548.444553 1114.818943,549.089948 1112.878434,547.321276"/>
    <poly id="123196801" type="building.apartments" color="255,230,230" fill="1" layer="-1.00" shape="1342.050342,448.220685 1322.303287,468.497490 1301.542155,448.058800 1302.998998,446.523557 1321.139458,427.861114 1338.623812,444.978590 1342.050342,448.220685"/>
    <poly id="123196850" type="building.apartments" color="255,230,230" fill="1" layer="-1.00" shape="718.277080,436.192637 738.125590,455.483924 724.022058,471.221580 703.729405,450.979831 718.277080,436.192637"/>
    <poly id="123196870" type="building.apartments" color="255,230,230" fill="1" layer="-1.00" shape="1335.038247,694.994961 1342.072157,702.043639 1354.069052,713.851711 1335.489388,733.717471 1332.968821,696.302985 1335.038247,694.994961"/>
    <poly id="123196903" type="building.apartments" color="255,230,230" fill="1" layer="-1.00" shape="1518.624581,778.774044 1519.209420,762.313902 1524.229690,757.457748 1538.923695,773.237047 1520.960093,782.493105 1518.624581,778.774044"/>
    <poly id="123196958" type="building.apartments" color="255,230,230" fill="1" layer="-1.00" shape="1504.974208,749.017246 1481.137609,745.883939 1471.952918,735.180910 1489.608269,721.719724 1513.996254,741.202274 1504.974208,749.017246"/>
    <poly id="123196996" type="building.apartments" color="255,230,230" fill="1" layer="-1.00" shape="855.502431,507.285658 854.007876,486.127024 859.037037,480.493116 872.517317,494.228925 857.772471,509.395232 855.502431,507.285658"/>
    <poly id="123197007" type="building.apartments" color="255,230,230" fill="1" layer="-1.00" shape="1065.774408,510.396636 1069.269374,506.920684 1074.163748,511.469599 1082.698881,502.615161 1084.031653,501.225419 1074.264954,491.816484 1070.517451,488.255656 1068.421922,490.319006 1067.164176,489.109942 1059.088844,497.093891 1061.384776,499.292098 1057.872547,502.712707 1051.628218,496.933435 1045.148881,503.935894 1054.141381,512.841602 1063.749539,522.285364 1070.612200,515.145951 1065.774408,510.396636"/>
    <poly id="123197054" type="building.apartments" color="255,230,230" fill="1" layer="-1.00" shape="1522.004756,690.018151 1526.080530,695.563445 1542.892469,710.711591 1513.996254,741.202274 1489.608269,721.719724 1522.004756,690.018151"/>
    <poly id="123197066" type="building.apartments" color="255,230,230" fill="1" layer="-1.00" shape="1426.982477,789.499064 1424.910945,791.451050 1423.889034,790.406183 1419.507163,794.689972 1420.522973,795.968058 1416.920585,799.578117 1416.006184,798.410077 1413.395711,800.833614 1414.588180,802.221015 1413.478675,803.353166 1413.859873,803.860202 1406.897047,811.022469 1403.756064,807.888605 1397.717637,801.729549 1388.688164,792.379670 1409.182247,771.607250 1418.268200,780.745650 1426.982477,789.499064"/>
    <poly id="123197078" type="building.office" color="255,230,230" fill="1" layer="-1.00" shape="1123.641168,457.205306 1127.017838,460.469993 1135.484855,468.659228 1136.410312,467.517724 1140.103669,462.940691 1142.441966,460.042282 1146.160091,455.431702 1151.671154,448.594200 1142.383671,439.446980 1133.063368,430.366709 1130.968669,432.518855 1129.577885,433.964667 1115.148824,448.994126 1123.641168,457.205306"/>
    <poly id="123197100" type="building.apartments" color="255,230,230" fill="1" layer="-1.00" shape="1354.008109,589.522131 1361.676304,597.297465 1346.921127,612.340730 1339.030086,604.867352 1354.008109,589.522131"/>
    <poly id="123197160" type="building.yes" color="255,230,230" fill="1" layer="-1.00" shape="1538.657022,642.014624 1518.593218,662.393891 1530.727466,672.002549 1530.740642,671.636026 1548.223548,652.425366 1548.047318,652.360454 1546.271678,649.468682 1541.107561,644.655598 1538.657022,642.014624"/>
    <poly id="123197160#1" type="tourism.hostel" color="207,245,201" fill="1" layer="-2.00" shape="1538.657022,642.014624 1518.593218,662.393891 1530.727466,672.002549 1530.740642,671.636026 1548.223548,652.425366 1548.047318,652.360454 1546.271678,649.468682 1541.107561,644.655598 1538.657022,642.014624"/>
    <poly id="123197161" type="building.apartments" color="255,230,230" fill="1" layer="-1.00" shape="1288.887191,619.943426 1302.600659,634.554878 1306.267701,638.460794 1298.660246,645.551701 1281.218509,626.757374 1288.887191,619.943426"/>
    <poly id="123197173" type="building.apartments" color="255,230,230" fill="1" layer="-1.00" shape="1363.809037,628.364863 1346.921127,612.340730 1361.676304,597.297465 1365.416494,593.230825 1376.378854,606.991979 1363.809037,628.364863"/>
    <poly id="123197207" type="building.apartments" color="255,230,230" fill="1" layer="-1.00" shape="696.850907,494.892591 709.088240,508.906747 690.739423,528.316700 677.200241,516.280544 690.247572,502.007619 696.850907,494.892591"/>
    <poly id="123197315" type="building.apartments" color="255,230,230" fill="1" layer="-1.00" shape="1143.593923,580.974913 1150.662719,573.533791 1167.820082,590.554116 1143.807258,590.865518 1143.593923,580.974913"/>
    <poly id="123197347" type="building.apartments" color="255,230,230" fill="1" layer="-1.00" shape="1421.193432,595.165804 1430.667397,603.767522 1447.479747,618.915450 1418.583546,649.406510 1390.600768,623.175271 1421.193432,595.165804"/>
    <poly id="123197383" type="building.apartments" color="255,230,230" fill="1" layer="-1.00" shape="1329.891540,596.373525 1329.254188,576.372303 1334.413807,571.225991 1350.842680,586.466246 1335.873019,601.811393 1329.891540,596.373525"/>
    <poly id="123197405" type="building.apartments" color="255,230,230" fill="1" layer="-1.00" shape="964.300720,452.240919 954.150140,462.643463 940.540893,451.962061 932.577995,445.755547 945.434900,433.328037 964.300720,452.240919"/>
    <poly id="123197440" type="building.apartments" color="255,230,230" fill="1" layer="-1.00" shape="1426.770850,690.041428 1425.278094,668.893793 1430.315920,663.260202 1443.786404,676.997141 1429.049133,692.162199 1426.770850,690.041428"/>
    <poly id="123197467" type="building.apartments" color="255,230,230" fill="1" layer="-1.00" shape="905.565268,435.205065 920.718789,449.879472 924.891301,453.280635 917.284011,460.371943 899.840834,441.578521 905.565268,435.205065"/>
    <poly id="123197485" type="building.apartments" color="255,230,230" fill="1" layer="-1.00" shape="937.094818,565.811552 918.282530,566.061832 906.565773,556.494513 926.972421,536.254514 946.941274,555.967092 937.094818,565.811552"/>
    <poly id="123197510" type="building.apartments" color="255,230,230" fill="1" layer="-1.00" shape="1330.572951,782.851089 1330.623933,765.707726 1336.178540,760.779635 1345.341637,769.239921 1330.604762,784.405186 1330.572951,782.851089"/>
    <poly id="123197571" type="building.apartments" color="255,230,230" fill="1" layer="-1.00" shape="1413.859873,803.860202 1415.398050,805.544030 1417.713620,808.064140 1419.429314,809.946099 1417.053241,811.534645 1419.974785,814.459687 1427.417178,806.737640 1437.379712,816.600356 1438.823435,818.029737 1426.362925,830.818929 1406.897047,811.022469 1413.859873,803.860202"/>
    <poly id="123197646" type="building.apartments" color="255,230,230" fill="1" layer="-1.00" shape="1545.428276,773.140783 1553.119349,781.593367 1536.606784,798.218764 1531.295552,792.019251 1545.405206,776.804959 1545.428276,773.140783"/>
    <poly id="123197673" type="building.apartments" color="255,230,230" fill="1" layer="-1.00" shape="1469.969037,671.958082 1455.751308,688.106207 1468.087243,701.265731 1483.250025,685.996706 1472.824585,674.972608 1469.969037,671.958082"/>
    <poly id="123197675" type="building.apartments" color="255,230,230" fill="1" layer="-1.00" shape="1080.843074,524.994475 1084.378981,521.429309 1089.612980,526.507865 1098.280922,517.552225 1096.871276,516.200298 1100.324230,512.702565 1096.080078,508.802371 1093.874661,510.744653 1084.031653,501.225419 1082.698881,502.615161 1074.163748,511.469599 1077.878873,515.141773 1074.342966,518.706942 1070.612200,515.145951 1063.749539,522.285364 1071.077393,529.419746 1079.148602,537.324096 1086.135927,530.105764 1080.843074,524.994475"/>
    <poly id="123197683" type="building.apartments" color="255,230,230" fill="1" layer="-1.00" shape="1236.877888,692.462168 1235.384469,671.303463 1240.422148,665.669739 1253.892996,679.406329 1239.156119,694.571778 1236.877888,692.462168"/>
    <poly id="123197691" type="building.apartments" color="255,230,230" fill="1" layer="-1.00" shape="889.188900,539.332599 876.119406,526.547596 891.300467,510.666480 895.447549,506.329149 906.402582,520.089685 889.188900,539.332599"/>
    <poly id="123197732" type="building.apartments" color="255,230,230" fill="1" layer="-1.00" shape="1087.692190,440.057213 1087.485209,440.270184 1089.207489,441.952152 1089.629562,442.358848 1091.064741,443.754937 1092.263419,444.909066 1102.934560,455.308478 1103.728210,456.089055 1106.024573,458.331684 1107.042901,458.999044 1107.909857,459.579055 1110.670674,461.428561 1114.461508,457.416813 1115.105662,457.443849 1115.180642,451.403144 1114.826218,451.073508 1113.948522,450.249337 1115.148824,448.994126 1112.861254,446.795820 1100.131434,434.517847 1098.688110,433.144041 1096.510419,431.066803 1093.047767,434.431396 1089.936084,437.770366 1088.720356,436.583095 1087.387247,437.939530 1087.405198,439.782436 1087.692190,440.057213"/>
    <poly id="123197738" type="building.apartments" color="255,230,230" fill="1" layer="-1.00" shape="1119.359580,546.514276 1120.853694,547.954208 1127.683718,554.638275 1129.637427,552.609631 1131.674425,550.546868 1125.435423,544.445498 1124.211457,545.845276 1121.551374,543.173170 1122.792927,541.862043 1117.094225,536.288359 1113.221981,540.522958 1116.244308,543.469106 1119.165216,546.305213 1119.359580,546.514276"/>
    <poly id="123197791" type="building.apartments" color="255,230,230" fill="1" layer="-1.00" shape="868.233588,471.742987 881.068724,459.670864 897.963200,478.791584 900.812763,482.016904 888.167995,493.887281 880.151053,484.716877 868.233588,471.742987"/>