<?xml version="1.0" encoding="UTF-8"?>

<!-- generated on 2022-04-14 10:03:18 by Eclipse SUMO netedit Version 1.12.0
<configuration xmlns:xsi="http://www.w3.org/2001/XMLSchema-instance" xsi:noNamespaceSchemaLocation="http://sumo.dlr.de/xsd/netconvertConfiguration.xsd">

    <input>
        <sumo-net-file value="/home/grazeli/TFM/TFM_SUMO_RL/src/sumo/2022-04-14-10-01-20/osm.net.xml"/>
    </input>

    <output>
        <output-file value="/home/grazeli/TFM/TFM_SUMO_RL/src/sumo/2022-04-14-10-01-20/osm.net.xml"/>
        <output.street-names value="true"/>
    </output>

    <processing>
        <geometry.min-radius.fix.railways value="false"/>
        <geometry.max-grade.fix value="false"/>
        <offset.disable-normalization value="true"/>
        <lefthand value="false"/>
    </processing>

    <junctions>
        <no-turnarounds value="true"/>
        <junctions.corner-detail value="5"/>
        <junctions.limit-turn-speed value="5.5"/>
        <rectangular-lane-cut value="false"/>
    </junctions>

    <pedestrian>
        <walkingareas value="false"/>
    </pedestrian>

    <report>
        <aggregate-warnings value="5"/>
    </report>

</configuration>
-->

<net version="1.9" junctionCornerDetail="5" limitTurnSpeed="5.50" xmlns:xsi="http://www.w3.org/2001/XMLSchema-instance" xsi:noNamespaceSchemaLocation="http://sumo.dlr.de/xsd/net_file.xsd">

    <location netOffset="-428330.91,-4581134.24" convBoundary="0.00,0.00,1931.27,1850.29" origBoundary="2.141283,41.375373,2.179077,41.401000" projParameter="+proj=utm +zone=31 +ellps=WGS84 +datum=WGS84 +units=m +no_defs"/>

    <type id="highway.bridleway" priority="1" numLanes="1" speed="2.78" allow="pedestrian" oneway="1" width="2.00"/>
    <type id="highway.bus_guideway" priority="1" numLanes="1" speed="27.78" allow="bus" oneway="1"/>
    <type id="highway.cycleway" priority="1" numLanes="1" speed="8.33" allow="bicycle" oneway="0" width="1.00"/>
    <type id="highway.footway" priority="1" numLanes="1" speed="2.78" allow="pedestrian" oneway="1" width="2.00"/>
    <type id="highway.ford" priority="1" numLanes="1" speed="2.78" allow="army" oneway="0"/>
    <type id="highway.living_street" priority="2" numLanes="1" speed="2.78" disallow="tram rail_urban rail rail_electric rail_fast ship" oneway="0"/>
    <type id="highway.motorway" priority="14" numLanes="2" speed="39.44" allow="private emergency authority army vip passenger hov taxi bus coach delivery truck trailer motorcycle evehicle custom1 custom2" oneway="1"/>
    <type id="highway.motorway_link" priority="9" numLanes="1" speed="22.22" allow="private emergency authority army vip passenger hov taxi bus coach delivery truck trailer motorcycle evehicle custom1 custom2" oneway="1"/>
    <type id="highway.path" priority="1" numLanes="1" speed="2.78" allow="pedestrian bicycle" oneway="0" width="2.00"/>
    <type id="highway.pedestrian" priority="1" numLanes="1" speed="2.78" allow="pedestrian" oneway="1" width="2.00"/>
    <type id="highway.primary" priority="12" numLanes="2" speed="27.78" disallow="tram rail_urban rail rail_electric rail_fast ship" oneway="0"/>
    <type id="highway.primary_link" priority="7" numLanes="1" speed="22.22" disallow="tram rail_urban rail rail_electric rail_fast ship" oneway="0"/>
    <type id="highway.raceway" priority="15" numLanes="2" speed="83.33" allow="vip" oneway="0"/>
    <type id="highway.residential" priority="3" numLanes="1" speed="13.89" disallow="tram rail_urban rail rail_electric rail_fast ship" oneway="0"/>
    <type id="highway.secondary" priority="11" numLanes="1" speed="27.78" disallow="tram rail_urban rail rail_electric rail_fast ship" oneway="0"/>
    <type id="highway.secondary_link" priority="6" numLanes="1" speed="22.22" disallow="tram rail_urban rail rail_electric rail_fast ship" oneway="0"/>
    <type id="highway.service" priority="1" numLanes="1" speed="5.56" allow="pedestrian delivery bicycle" oneway="0"/>
    <type id="highway.stairs" priority="1" numLanes="1" speed="1.39" allow="pedestrian" oneway="1" width="2.00"/>
    <type id="highway.step" priority="1" numLanes="1" speed="1.39" allow="pedestrian" oneway="1" width="2.00"/>
    <type id="highway.steps" priority="1" numLanes="1" speed="1.39" allow="pedestrian" oneway="1" width="2.00"/>
    <type id="highway.tertiary" priority="10" numLanes="1" speed="22.22" disallow="tram rail_urban rail rail_electric rail_fast ship" oneway="0"/>
    <type id="highway.tertiary_link" priority="5" numLanes="1" speed="22.22" disallow="tram rail_urban rail rail_electric rail_fast ship" oneway="0"/>
    <type id="highway.track" priority="1" numLanes="1" speed="5.56" allow="pedestrian motorcycle moped bicycle" oneway="0"/>
    <type id="highway.trunk" priority="13" numLanes="2" speed="27.78" disallow="pedestrian bicycle tram rail_urban rail rail_electric rail_fast ship" oneway="0"/>
    <type id="highway.trunk_link" priority="8" numLanes="1" speed="22.22" disallow="pedestrian bicycle tram rail_urban rail rail_electric rail_fast ship" oneway="0"/>
    <type id="highway.unclassified" priority="4" numLanes="1" speed="13.89" disallow="tram rail_urban rail rail_electric rail_fast ship" oneway="0"/>
    <type id="highway.unsurfaced" priority="1" numLanes="1" speed="8.33" disallow="tram rail_urban rail rail_electric rail_fast ship" oneway="0"/>
    <type id="railway.highspeed" priority="21" numLanes="1" speed="69.44" allow="rail_fast" oneway="1"/>
    <type id="railway.light_rail" priority="19" numLanes="1" speed="27.78" allow="rail_urban" oneway="1"/>
    <type id="railway.preserved" priority="16" numLanes="1" speed="27.78" allow="rail" oneway="1"/>
    <type id="railway.rail" priority="20" numLanes="1" speed="44.44" allow="rail" oneway="1"/>
    <type id="railway.subway" priority="18" numLanes="1" speed="27.78" allow="rail_urban" oneway="1"/>
    <type id="railway.tram" priority="17" numLanes="1" speed="13.89" allow="tram" oneway="1"/>

    <edge id=":1121909742_0" function="internal">
        <lane id=":1121909742_0_0" index="0" disallow="tram rail_urban rail rail_electric rail_fast ship" speed="8.26" length="12.06" shape="371.39,405.01 368.51,403.83 365.72,403.70 363.01,404.63 360.39,406.62"/>
    </edge>
    <edge id=":1121909742_1" function="internal">
        <lane id=":1121909742_1_0" index="0" disallow="tram rail_urban rail rail_electric rail_fast ship" speed="13.89" length="18.84" shape="371.39,405.01 355.04,395.93"/>
        <lane id=":1121909742_1_1" index="1" disallow="tram rail_urban rail rail_electric rail_fast ship" speed="13.89" length="18.84" shape="373.01,402.25 356.54,393.10"/>
        <lane id=":1121909742_1_2" index="2" disallow="tram rail_urban rail rail_electric rail_fast ship" speed="13.89" length="18.84" shape="374.62,399.48 358.03,390.27"/>
    </edge>
    <edge id=":1121909742_4" function="internal">
        <lane id=":1121909742_4_0" index="0" disallow="tram rail_urban rail rail_electric rail_fast ship" speed="13.89" length="16.07" shape="371.85,395.25 360.39,406.62"/>
        <lane id=":1121909742_4_1" index="1" disallow="tram rail_urban rail rail_electric rail_fast ship" speed="13.89" length="16.07" shape="369.57,393.01 358.16,404.33"/>
        <lane id=":1121909742_4_2" index="2" disallow="tram rail_urban rail rail_electric rail_fast ship" speed="13.89" length="16.07" shape="367.28,390.77 355.92,402.03"/>
    </edge>
    <edge id=":1121909742_7" function="internal">
        <lane id=":1121909742_7_0" index="0" disallow="tram rail_urban rail rail_electric rail_fast ship" speed="8.29" length="11.87" shape="367.28,390.77 364.68,392.88 362.02,393.98 359.31,394.05 356.54,393.10"/>
        <lane id=":1121909742_7_1" index="1" disallow="tram rail_urban rail rail_electric rail_fast ship" speed="7.61" length="9.89" shape="367.28,390.77 365.65,391.81 363.56,392.08 361.03,391.56 358.03,390.27"/>
    </edge>
    <edge id=":1297744734_0" function="internal">
        <lane id=":1297744734_0_0" index="0" disallow="pedestrian tram rail_urban rail rail_electric rail_fast ship" speed="13.89" length="6.62" shape="992.02,749.98 990.47,749.37 989.27,749.36 988.02,749.44 986.34,749.10"/>
        <lane id=":1297744734_0_1" index="1" disallow="pedestrian tram rail_urban rail rail_electric rail_fast ship" speed="13.89" length="6.62" shape="993.63,747.21 991.92,746.51 990.61,746.45 989.25,746.48 987.41,746.09"/>
        <lane id=":1297744734_0_2" index="2" disallow="pedestrian tram rail_urban rail rail_electric rail_fast ship" speed="13.89" length="6.62" shape="995.24,744.44 993.38,743.66 991.96,743.54 990.49,743.53 988.48,743.07"/>
        <lane id=":1297744734_0_3" index="3" disallow="pedestrian tram rail_urban rail rail_electric rail_fast ship" speed="13.89" length="6.62" shape="995.24,744.44 993.51,743.16 992.50,742.02 991.43,740.99 989.55,740.05"/>
    </edge>
    <edge id=":1479334690_0" function="internal">
        <lane id=":1479334690_0_0" index="0" disallow="tram rail_urban rail rail_electric rail_fast ship" speed="6.54" length="11.01" shape="861.55,668.21 859.57,666.54 859.02,664.46 859.88,661.99 862.16,659.13"/>
    </edge>
    <edge id=":1479334690_1" function="internal">
        <lane id=":1479334690_1_0" index="0" disallow="tram rail_urban rail rail_electric rail_fast ship" speed="3.65" length="4.67" shape="861.55,668.21 860.88,666.93 860.92,666.04 861.65,665.53 863.09,665.41"/>
    </edge>
    <edge id=":1479334690_2" function="internal">
        <lane id=":1479334690_2_0" index="0" disallow="tram rail_urban rail rail_electric rail_fast ship" speed="6.95" length="10.39" shape="852.87,661.44 855.13,662.28 857.43,662.18 859.77,661.13 862.16,659.13"/>
    </edge>
    <edge id=":1479334690_3" function="internal">
        <lane id=":1479334690_3_0" index="0" disallow="tram rail_urban rail rail_electric rail_fast ship" speed="5.56" length="10.99" shape="852.87,661.44 855.67,662.79 857.95,663.47 860.25,664.13 863.09,665.41"/>
    </edge>
    <edge id=":1479334690_4" function="internal">
        <lane id=":1479334690_4_0" index="0" disallow="tram rail_urban rail rail_electric rail_fast ship" speed="8.33" length="12.91" shape="853.14,668.37 862.16,659.13"/>
    </edge>
    <edge id=":1479334690_5" function="internal">
        <lane id=":1479334690_5_0" index="0" disallow="tram rail_urban rail rail_electric rail_fast ship" speed="6.95" length="11.20" shape="853.14,668.37 855.77,666.13 858.30,664.88 860.74,664.64 863.09,665.41"/>
    </edge>
    <edge id=":1479334726_0" function="internal">
        <lane id=":1479334726_0_0" index="0" disallow="tram rail_urban rail rail_electric rail_fast ship" speed="8.00" length="11.38" shape="701.23,612.96 703.53,613.71 705.97,613.43 708.56,612.13 711.30,609.79"/>
        <lane id=":1479334726_0_1" index="1" disallow="tram rail_urban rail rail_electric rail_fast ship" speed="8.33" length="13.44" shape="701.23,612.96 704.75,614.47 707.98,614.81 710.92,614.00 713.58,612.03"/>
    </edge>
    <edge id=":1479334726_2" function="internal">
        <lane id=":1479334726_2_0" index="0" disallow="tram rail_urban rail rail_electric rail_fast ship" speed="6.95" length="20.36" shape="701.23,612.96 719.12,622.67"/>
    </edge>
    <edge id=":1479334726_3" function="internal">
        <lane id=":1479334726_3_0" index="0" disallow="tram rail_urban rail rail_electric rail_fast ship" speed="8.33" length="13.09" shape="702.13,619.20 711.30,609.79"/>
        <lane id=":1479334726_3_1" index="1" disallow="tram rail_urban rail rail_electric rail_fast ship" speed="8.33" length="13.09" shape="704.43,621.42 713.58,612.03"/>
        <lane id=":1479334726_3_2" index="2" disallow="tram rail_urban rail rail_electric rail_fast ship" speed="8.33" length="13.09" shape="706.73,623.64 715.86,614.27"/>
        <lane id=":1479334726_3_3" index="3" disallow="tram rail_urban rail rail_electric rail_fast ship" speed="8.33" length="13.09" shape="709.03,625.86 718.14,616.52"/>
    </edge>
    <edge id=":1479334726_7" function="internal">
        <lane id=":1479334726_7_0" index="0" disallow="tram rail_urban rail rail_electric rail_fast ship" speed="6.95" length="11.38" shape="709.03,625.86 711.70,623.56 714.26,622.26 716.74,621.96 719.12,622.67"/>
    </edge>
    <edge id=":1479334771_0" function="internal">
        <lane id=":1479334771_0_0" index="0" disallow="tram rail_urban rail rail_electric rail_fast ship" speed="7.44" length="13.76" shape="731.28,578.53 734.39,581.92 737.31,583.60 740.03,583.57 742.55,581.82"/>
    </edge>
    <edge id=":1479334771_1" function="internal">
        <lane id=":1479334771_1_0" index="0" disallow="tram rail_urban rail rail_electric rail_fast ship" speed="13.89" length="23.68" shape="731.28,578.53 735.48,583.78 738.77,587.04 742.46,589.88 747.93,593.87"/>
        <lane id=":1479334771_1_1" index="1" disallow="tram rail_urban rail rail_electric rail_fast ship" speed="13.89" length="23.68" shape="728.72,580.45 733.09,585.92 736.49,589.32 740.33,592.28 746.01,596.43"/>
        <lane id=":1479334771_1_2" index="2" disallow="tram rail_urban rail rail_electric rail_fast ship" speed="13.89" length="23.68" shape="726.17,582.38 730.70,588.06 734.22,591.59 738.20,594.67 744.09,598.99"/>
    </edge>
    <edge id=":1479334771_4" function="internal">
        <lane id=":1479334771_4_0" index="0" disallow="tram rail_urban rail rail_electric rail_fast ship" speed="8.33" length="23.43" shape="723.00,586.65 729.79,588.49 735.70,588.67 740.73,587.17 744.89,583.99"/>
    </edge>
    <edge id=":1479334771_5" function="internal">
        <lane id=":1479334771_5_0" index="0" disallow="tram rail_urban rail rail_electric rail_fast ship" speed="11.11" length="24.84" shape="723.00,586.65 727.16,587.86 732.51,589.38 738.85,591.98 746.01,596.43"/>
        <lane id=":1479334771_5_1" index="1" disallow="tram rail_urban rail rail_electric rail_fast ship" speed="11.11" length="24.84" shape="723.00,586.65 726.90,588.28 731.63,590.72 737.33,594.21 744.09,598.99"/>
    </edge>
    <edge id=":1479334771_7" function="internal">
        <lane id=":1479334771_7_0" index="0" disallow="tram rail_urban rail rail_electric rail_fast ship" speed="8.33" length="20.51" shape="728.19,596.04 732.64,592.01 735.61,589.17 738.46,586.21 742.55,581.82"/>
        <lane id=":1479334771_7_1" index="1" disallow="tram rail_urban rail rail_electric rail_fast ship" speed="8.33" length="20.51" shape="730.33,598.42 734.84,594.33 737.85,591.45 740.75,588.45 744.89,583.99"/>
        <lane id=":1479334771_7_2" index="2" disallow="tram rail_urban rail rail_electric rail_fast ship" speed="8.33" length="20.51" shape="732.47,600.80 737.04,596.65 740.10,593.73 743.03,590.69 747.24,586.17"/>
    </edge>
    <edge id=":1479334771_10" function="internal">
        <lane id=":1479334771_10_0" index="0" disallow="tram rail_urban rail rail_electric rail_fast ship" speed="7.54" length="10.63" shape="732.47,600.80 734.56,599.51 736.87,599.21 739.41,599.89 742.17,601.55"/>
    </edge>
    <edge id=":1479334819_0" function="internal">
        <lane id=":1479334819_0_0" index="0" disallow="tram rail_urban rail rail_electric rail_fast ship" speed="7.48" length="9.67" shape="487.82,454.89 490.04,455.73 492.24,455.72 494.42,454.87 496.58,453.16"/>
    </edge>
    <edge id=":1479334819_1" function="internal">
        <lane id=":1479334819_1_0" index="0" disallow="tram rail_urban rail rail_electric rail_fast ship" speed="8.33" length="13.59" shape="487.82,454.89 499.65,461.58"/>
    </edge>
    <edge id=":1479334819_2" function="internal">
        <lane id=":1479334819_2_0" index="0" disallow="tram rail_urban rail rail_electric rail_fast ship" speed="8.33" length="9.75" shape="489.71,460.18 491.62,457.99 493.02,456.56 494.48,455.19 496.58,453.16"/>
        <lane id=":1479334819_2_1" index="1" disallow="tram rail_urban rail rail_electric rail_fast ship" speed="8.33" length="9.75" shape="492.07,462.35 493.95,460.19 495.33,458.78 496.76,457.43 498.83,455.44"/>
    </edge>
    <edge id=":1479334819_4" function="internal">
        <lane id=":1479334819_4_0" index="0" disallow="tram rail_urban rail rail_electric rail_fast ship" speed="6.73" length="8.37" shape="492.07,462.35 493.62,461.02 495.40,460.44 497.41,460.63 499.65,461.58"/>
    </edge>
    <edge id=":1479334850_0" function="internal">
        <lane id=":1479334850_0_0" index="0" disallow="tram rail_urban rail rail_electric rail_fast ship" speed="13.89" length="35.31" shape="440.00,478.47 433.62,469.51 426.29,462.42 419.53,457.27 414.87,454.15"/>
    </edge>
    <edge id=":1479334850_1" function="internal">
        <lane id=":1479334850_1_0" index="0" disallow="tram rail_urban rail rail_electric rail_fast ship" speed="13.89" length="35.15" shape="445.55,471.30 439.48,468.00 430.12,462.87 420.80,457.67 414.87,454.15"/>
    </edge>
    <edge id=":1479334853_0" function="internal">
        <lane id=":1479334853_0_0" index="0" disallow="tram rail_urban rail rail_electric rail_fast ship" speed="6.04" length="9.09" shape="464.56,488.34 466.03,486.22 466.31,484.29 465.42,482.55 463.33,480.99"/>
    </edge>
    <edge id=":1479334853_1" function="internal">
        <lane id=":1479334853_1_0" index="0" disallow="tram rail_urban rail rail_electric rail_fast ship" speed="8.33" length="12.86" shape="464.56,488.34 473.22,478.83"/>
        <lane id=":1479334853_1_1" index="1" disallow="tram rail_urban rail rail_electric rail_fast ship" speed="8.33" length="12.86" shape="466.92,490.49 475.59,480.99"/>
    </edge>
    <edge id=":1479334853_3" function="internal">
        <lane id=":1479334853_3_0" index="0" disallow="tram rail_urban rail rail_electric rail_fast ship" speed="7.86" length="11.02" shape="466.92,490.49 469.29,488.48 471.73,487.45 474.25,487.40 476.83,488.34"/>
    </edge>
    <edge id=":1479334855_0" function="internal">
        <lane id=":1479334855_0_0" index="0" disallow="tram rail_urban rail rail_electric rail_fast ship" speed="9.72" length="43.55" shape="756.60,600.38 768.23,609.11 778.54,616.80 786.67,622.70 791.74,626.08"/>
    </edge>
    <edge id=":1479334855_1" function="internal">
        <lane id=":1479334855_1_0" index="0" disallow="tram rail_urban rail rail_electric rail_fast ship" speed="13.89" length="33.91" shape="756.60,600.38 764.59,606.86 769.53,611.91 774.11,617.35 781.04,625.03"/>
        <lane id=":1479334855_1_1" index="1" disallow="tram rail_urban rail rail_electric rail_fast ship" speed="13.89" length="33.91" shape="754.68,602.94 762.52,609.31 767.37,614.28 771.87,619.63 778.68,627.18"/>
        <lane id=":1479334855_1_2" index="2" disallow="tram rail_urban rail rail_electric rail_fast ship" speed="13.89" length="33.91" shape="752.76,605.50 760.46,611.76 765.21,616.65 769.63,621.92 776.31,629.34"/>
        <lane id=":1479334855_1_3" index="3" disallow="tram rail_urban rail rail_electric rail_fast ship" speed="13.89" length="33.91" shape="750.84,608.06 758.40,614.21 763.06,619.02 767.38,624.20 773.94,631.49"/>
    </edge>
    <edge id=":1479334886_0" function="internal">
        <lane id=":1479334886_0_0" index="0" disallow="tram rail_urban rail rail_electric rail_fast ship" speed="5.99" length="9.08" shape="379.84,387.31 378.26,389.38 377.88,391.28 378.72,393.03 380.78,394.63"/>
    </edge>
    <edge id=":1479334886_1" function="internal">
        <lane id=":1479334886_1_0" index="0" disallow="tram rail_urban rail rail_electric rail_fast ship" speed="13.89" length="11.13" shape="379.84,387.31 371.99,395.11"/>
        <lane id=":1479334886_1_1" index="1" disallow="tram rail_urban rail rail_electric rail_fast ship" speed="13.89" length="11.13" shape="377.60,385.02 369.71,392.87"/>
        <lane id=":1479334886_1_2" index="2" disallow="tram rail_urban rail rail_electric rail_fast ship" speed="13.89" length="11.13" shape="375.37,382.74 367.42,390.63"/>
    </edge>
    <edge id=":1479334886_4" function="internal">
        <lane id=":1479334886_4_0" index="0" disallow="tram rail_urban rail rail_electric rail_fast ship" speed="8.33" length="18.81" shape="364.48,385.24 380.78,394.63"/>
    </edge>
    <edge id=":1479334886_5" function="internal">
        <lane id=":1479334886_5_0" index="0" disallow="tram rail_urban rail rail_electric rail_fast ship" speed="7.31" length="13.90" shape="364.48,385.24 369.06,388.24 371.83,390.89 372.81,393.18 371.99,395.11"/>
        <lane id=":1479334886_5_1" index="1" disallow="tram rail_urban rail rail_electric rail_fast ship" speed="6.44" length="10.52" shape="364.48,385.24 367.84,387.48 369.83,389.50 370.46,391.29 369.71,392.87"/>
        <lane id=":1479334886_5_2" index="2" disallow="tram rail_urban rail rail_electric rail_fast ship" speed="5.45" length="7.17" shape="364.48,385.24 366.63,386.72 367.84,388.11 368.10,389.41 367.42,390.63"/>
    </edge>
    <edge id=":1479334897_0" function="internal">
        <lane id=":1479334897_0_0" index="0" disallow="tram rail_urban rail rail_electric rail_fast ship" speed="6.00" length="9.08" shape="597.78,547.35 596.22,549.43 595.87,551.34 596.71,553.09 598.76,554.68"/>
    </edge>
    <edge id=":1479334897_1" function="internal">
        <lane id=":1479334897_1_0" index="0" disallow="tram rail_urban rail rail_electric rail_fast ship" speed="8.33" length="13.22" shape="597.78,547.35 588.54,556.76"/>
        <lane id=":1479334897_1_1" index="1" disallow="tram rail_urban rail rail_electric rail_fast ship" speed="8.33" length="13.22" shape="595.52,545.09 586.24,554.53"/>
    </edge>
    <edge id=":1479334897_3" function="internal">
        <lane id=":1479334897_3_0" index="0" disallow="tram rail_urban rail rail_electric rail_fast ship" speed="8.33" length="15.61" shape="585.05,547.22 598.76,554.68"/>
    </edge>
    <edge id=":1479334897_4" function="internal">
        <lane id=":1479334897_4_0" index="0" disallow="tram rail_urban rail rail_electric rail_fast ship" speed="6.01" length="9.10" shape="585.05,547.22 587.15,548.78 588.05,550.52 587.75,552.43 586.24,554.53"/>
    </edge>
    <edge id=":1479334915_0" function="internal">
        <lane id=":1479334915_0_0" index="0" disallow="tram rail_urban rail rail_electric rail_fast ship" speed="6.00" length="9.08" shape="622.92,524.87 621.35,526.94 620.98,528.85 621.83,530.60 623.88,532.19"/>
    </edge>
    <edge id=":1479334915_1" function="internal">
        <lane id=":1479334915_1_0" index="0" disallow="tram rail_urban rail rail_electric rail_fast ship" speed="8.33" length="12.53" shape="620.67,522.59 618.21,525.37 616.81,527.52 615.40,529.66 612.91,532.41"/>
        <lane id=":1479334915_1_1" index="1" disallow="tram rail_urban rail rail_electric rail_fast ship" speed="8.33" length="12.53" shape="618.42,520.32 615.97,523.09 614.57,525.23 613.17,527.37 610.69,530.11"/>
    </edge>
    <edge id=":1479334915_3" function="internal">
        <lane id=":1479334915_3_0" index="0" disallow="tram rail_urban rail rail_electric rail_fast ship" speed="8.33" length="17.98" shape="608.28,523.26 623.88,532.19"/>
    </edge>
    <edge id=":1479334915_4" function="internal">
        <lane id=":1479334915_4_0" index="0" disallow="tram rail_urban rail rail_electric rail_fast ship" speed="5.90" length="8.83" shape="608.28,523.26 610.67,524.97 611.87,526.68 611.88,528.39 610.69,530.11"/>
    </edge>
    <edge id=":1479334951_0" function="internal">
        <lane id=":1479334951_0_0" index="0" disallow="tram rail_urban rail rail_electric rail_fast ship" speed="7.63" length="10.40" shape="355.25,418.68 352.95,417.85 350.63,417.95 348.30,419.00 345.95,420.99"/>
    </edge>
    <edge id=":1479334951_1" function="internal">
        <lane id=":1479334951_1_0" index="0" disallow="tram rail_urban rail rail_electric rail_fast ship" speed="13.89" length="17.07" shape="355.25,418.68 340.38,410.28"/>
    </edge>
    <edge id=":1479334951_2" function="internal">
        <lane id=":1479334951_2_0" index="0" disallow="tram rail_urban rail rail_electric rail_fast ship" speed="13.89" length="12.18" shape="354.44,412.42 345.95,420.99"/>
        <lane id=":1479334951_2_1" index="1" disallow="tram rail_urban rail rail_electric rail_fast ship" speed="13.89" length="12.18" shape="352.21,410.13 343.64,418.78"/>
        <lane id=":1479334951_2_2" index="2" disallow="tram rail_urban rail rail_electric rail_fast ship" speed="13.89" length="12.18" shape="349.97,407.84 341.32,416.57"/>
    </edge>
    <edge id=":1479334951_5" function="internal">
        <lane id=":1479334951_5_0" index="0" disallow="tram rail_urban rail rail_electric rail_fast ship" speed="7.86" length="10.67" shape="349.97,407.84 347.47,409.85 345.03,410.93 342.67,411.08 340.38,410.28"/>
    </edge>
    <edge id=":1532752078_0" function="internal">
        <lane id=":1532752078_0_0" index="0" disallow="pedestrian tram rail_urban rail rail_electric rail_fast ship" speed="6.68" length="9.35" shape="547.71,224.34 545.54,222.81 543.45,222.28 541.42,222.75 539.46,224.22"/>
        <lane id=":1532752078_0_1" index="1" disallow="pedestrian tram rail_urban rail rail_electric rail_fast ship" speed="7.49" length="12.02" shape="547.71,224.34 544.52,221.86 541.70,220.63 539.25,220.67 537.17,221.98"/>
        <lane id=":1532752078_0_2" index="2" disallow="pedestrian tram rail_urban rail rail_electric rail_fast ship" speed="8.26" length="14.84" shape="547.71,224.34 543.49,220.90 539.95,218.99 537.08,218.60 534.88,219.74"/>
    </edge>
    <edge id=":1532752078_3" function="internal">
        <lane id=":1532752078_3_0" index="0" disallow="pedestrian tram rail_urban rail rail_electric rail_fast ship" speed="13.89" length="17.64" shape="547.71,224.34 534.85,211.95"/>
        <lane id=":1532752078_3_1" index="1" disallow="pedestrian tram rail_urban rail rail_electric rail_fast ship" speed="13.89" length="17.64" shape="549.88,221.99 537.12,209.70"/>
        <lane id=":1532752078_3_2" index="2" disallow="pedestrian tram rail_urban rail rail_electric rail_fast ship" speed="13.89" length="17.64" shape="552.05,219.64 539.39,207.44"/>
        <lane id=":1532752078_3_3" index="3" disallow="pedestrian tram rail_urban rail rail_electric rail_fast ship" speed="13.89" length="17.64" shape="554.22,217.29 541.66,205.19"/>
    </edge>
    <edge id=":1532752078_7" function="internal">
        <lane id=":1532752078_7_0" index="0" disallow="tram rail_urban rail rail_electric rail_fast ship" speed="13.89" length="20.82" shape="554.05,209.52 539.46,224.22"/>
        <lane id=":1532752078_7_1" index="1" disallow="tram rail_urban rail rail_electric rail_fast ship" speed="13.89" length="20.82" shape="551.84,207.20 537.17,221.98"/>
        <lane id=":1532752078_7_2" index="2" disallow="tram rail_urban rail rail_electric rail_fast ship" speed="13.89" length="20.82" shape="549.64,204.88 534.88,219.74"/>
    </edge>
    <edge id=":1532752078_10" function="internal">
        <lane id=":1532752078_10_0" index="0" disallow="pedestrian tram rail_urban rail rail_electric rail_fast ship" speed="7.32" length="11.89" shape="549.64,204.88 546.63,207.49 543.92,208.78 541.51,208.77 539.39,207.44"/>
        <lane id=":1532752078_10_1" index="1" disallow="pedestrian tram rail_urban rail rail_electric rail_fast ship" speed="6.50" length="9.14" shape="549.64,204.88 547.61,206.48 545.60,207.07 543.62,206.64 541.66,205.19"/>
    </edge>
    <edge id=":1532752080_0" function="internal">
        <lane id=":1532752080_0_0" index="0" disallow="pedestrian tram rail_urban rail rail_electric rail_fast ship" speed="6.61" length="9.17" shape="740.81,411.47 738.76,409.98 736.73,409.48 734.71,409.96 732.72,411.43"/>
    </edge>
    <edge id=":1532752080_1" function="internal">
        <lane id=":1532752080_1_0" index="0" disallow="pedestrian tram rail_urban rail rail_electric rail_fast ship" speed="13.89" length="14.38" shape="740.81,411.47 730.47,401.39"/>
        <lane id=":1532752080_1_1" index="1" disallow="pedestrian tram rail_urban rail rail_electric rail_fast ship" speed="13.89" length="14.38" shape="743.03,409.17 732.72,399.11"/>
        <lane id=":1532752080_1_2" index="2" disallow="pedestrian tram rail_urban rail rail_electric rail_fast ship" speed="13.89" length="14.38" shape="745.25,406.86 734.97,396.83"/>
        <lane id=":1532752080_1_3" index="3" disallow="pedestrian tram rail_urban rail rail_electric rail_fast ship" speed="13.89" length="14.38" shape="747.47,404.56 737.22,394.56"/>
    </edge>
    <edge id=":1532752080_5" function="internal">
        <lane id=":1532752080_5_0" index="0" disallow="tram rail_urban rail rail_electric rail_fast ship" speed="8.33" length="20.69" shape="747.38,396.80 732.72,411.43"/>
        <lane id=":1532752080_5_1" index="1" disallow="tram rail_urban rail rail_electric rail_fast ship" speed="8.33" length="20.69" shape="745.11,394.55 730.47,409.15"/>
    </edge>
    <edge id=":1532752080_7" function="internal">
        <lane id=":1532752080_7_0" index="0" disallow="pedestrian tram rail_urban rail rail_electric rail_fast ship" speed="7.32" length="11.68" shape="745.11,394.55 742.16,397.02 739.49,398.23 737.09,398.17 734.97,396.83"/>
        <lane id=":1532752080_7_1" index="1" disallow="pedestrian tram rail_urban rail rail_electric rail_fast ship" speed="6.50" length="9.00" shape="745.11,394.55 743.15,396.03 741.18,396.52 739.20,396.03 737.22,394.56"/>
    </edge>
    <edge id=":1532752081_0" function="internal">
        <lane id=":1532752081_0_0" index="0" disallow="pedestrian tram rail_urban rail rail_electric rail_fast ship" speed="13.89" length="17.69" shape="836.25,506.50 823.73,493.76"/>
        <lane id=":1532752081_0_1" index="1" disallow="pedestrian tram rail_urban rail rail_electric rail_fast ship" speed="13.89" length="17.69" shape="838.49,504.22 826.06,491.56"/>
        <lane id=":1532752081_0_2" index="2" disallow="pedestrian tram rail_urban rail rail_electric rail_fast ship" speed="13.89" length="17.69" shape="840.74,501.94 828.38,489.36"/>
        <lane id=":1532752081_0_3" index="3" disallow="pedestrian tram rail_urban rail rail_electric rail_fast ship" speed="13.89" length="17.69" shape="842.98,499.66 830.70,487.15"/>
    </edge>
    <edge id=":1532752081_4" function="internal">