<configuration><input><net-file value="osm.net.xml" /><route-files value="routefile_output.xml" /></input><processing><ignore-route-errors value="true" /></processing><gui_only><gui-settings-file value="osm.view.xml" /></gui_only></configuration>